/*---------------------------------------------------------------------------*\
| =========                 |                                                 |
| \\      /  F ield         | OpenFOAM: The Open Source CFD Toolbox           |
|  \\    /   O peration     | Version:  5.x                                   |
|   \\  /    A nd           | Web:      www.OpenFOAM.org                      |
|    \\/     M anipulation  |                                                 |
\*---------------------------------------------------------------------------*/
Build  : 5.x-7f7d351b741b
Exec   : potentialFoam -writep
Date   : Sep 20 2021
Time   : 13:02:05
Host   : "jupiter"
PID    : 30545
I/O    : uncollated
Case   : /lus/scratch/mellis/cray_labs/smartsim-openFOAM/data_generation/Data_Generation_Model/Check/Setup
nProcs : 1
sigFpe : Floating point exception trapping - not supported on this platform
fileModificationChecking : Monitoring run-time modified files using timeStampMaster (fileModificationSkew 10)
allowSystemOperations : Allowing user-supplied system call operations

// * * * * * * * * * * * * * * * * * * * * * * * * * * * * * * * * * * * * * //
Create time

--> FOAM Warning : 
    From function void* Foam::dlOpen(const Foam::fileName&, bool)
    in file POSIX.C at line 1236
    dlopen error : /home/users/mellis/OpenFOAM/mellis-5.x/platforms/crayxcGccDPInt32Opt/lib/SA_Detailed.so: undefined symbol: _ZTIN4Foam29incompressibleTurbulenceModelE
--> FOAM Warning : 
    From function bool Foam::dlLibraryTable::open(const Foam::fileName&, bool)
    in file db/dynamicLibrary/dlLibraryTable/dlLibraryTable.C at line 105
    could not load "SA_Detailed.so"
Create mesh for time = 0


potentialFlow: Operating solver in PISO mode

Reading velocity field U

/*---------------------------------------------------------------------------*\
| =========                 |                                                 |
| \\      /  F ield         | OpenFOAM: The Open Source CFD Toolbox           |
|  \\    /   O peration     | Version:  5.x                                   |
|   \\  /    A nd           | Web:      www.OpenFOAM.org                      |
|    \\/     M anipulation  |                                                 |
\*---------------------------------------------------------------------------*/
Build  : 5.x-7f7d351b741b
Exec   : potentialFoam -writep
Date   : Sep 20 2021
Time   : 13:05:21
Host   : "jupiter"
PID    : 3063
I/O    : uncollated
Case   : /lus/scratch/mellis/cray_labs/smartsim-openFOAM/data_generation/Data_Generation_Model/Check/Setup
nProcs : 1
sigFpe : Floating point exception trapping - not supported on this platform
fileModificationChecking : Monitoring run-time modified files using timeStampMaster (fileModificationSkew 10)
allowSystemOperations : Allowing user-supplied system call operations

// * * * * * * * * * * * * * * * * * * * * * * * * * * * * * * * * * * * * * //
Create time

--> FOAM Warning : 
    From function void* Foam::dlOpen(const Foam::fileName&, bool)
    in file POSIX.C at line 1236
    dlopen error : /home/users/mellis/OpenFOAM/mellis-5.x/platforms/crayxcGccDPInt32Opt/lib/SA_Detailed.so: undefined symbol: _ZTIN4Foam29incompressibleTurbulenceModelE
--> FOAM Warning : 
    From function bool Foam::dlLibraryTable::open(const Foam::fileName&, bool)
    in file db/dynamicLibrary/dlLibraryTable/dlLibraryTable.C at line 105
    could not load "SA_Detailed.so"
Create mesh for time = 0


potentialFlow: Operating solver in PISO mode

Reading velocity field U

/*---------------------------------------------------------------------------*\
| =========                 |                                                 |
| \\      /  F ield         | OpenFOAM: The Open Source CFD Toolbox           |
|  \\    /   O peration     | Version:  5.x                                   |
|   \\  /    A nd           | Web:      www.OpenFOAM.org                      |
|    \\/     M anipulation  |                                                 |
\*---------------------------------------------------------------------------*/
Build  : 5.x-7f7d351b741b
Exec   : potentialFoam -writep
Date   : Sep 20 2021
Time   : 13:07:31
Host   : "jupiter"
PID    : 5820
I/O    : uncollated
Case   : /lus/scratch/mellis/cray_labs/smartsim-openFOAM/data_generation/Data_Generation_Model/Check/Setup
nProcs : 1
sigFpe : Floating point exception trapping - not supported on this platform
fileModificationChecking : Monitoring run-time modified files using timeStampMaster (fileModificationSkew 10)
allowSystemOperations : Allowing user-supplied system call operations

// * * * * * * * * * * * * * * * * * * * * * * * * * * * * * * * * * * * * * //
Create time

--> FOAM Warning : 
    From function void* Foam::dlOpen(const Foam::fileName&, bool)
    in file POSIX.C at line 1236
    dlopen error : /home/users/mellis/OpenFOAM/mellis-5.x/platforms/crayxcGccDPInt32Opt/lib/SA_Detailed.so: undefined symbol: _ZTIN4Foam29incompressibleTurbulenceModelE
--> FOAM Warning : 
    From function bool Foam::dlLibraryTable::open(const Foam::fileName&, bool)
    in file db/dynamicLibrary/dlLibraryTable/dlLibraryTable.C at line 105
    could not load "SA_Detailed.so"
Create mesh for time = 0


potentialFlow: Operating solver in PISO mode

Reading velocity field U

Constructing pressure field p

Constructing velocity potential field Phi

No MRF models present


Calculating potential flow
GAMG:  Solving for Phi, Initial residual = 1, Final residual = 0.00951713, No Iterations 45
GAMG:  Solving for Phi, Initial residual = 0.387565, Final residual = 0.00338537, No Iterations 2
GAMG:  Solving for Phi, Initial residual = 0.0105713, Final residual = 7.67108e-05, No Iterations 5
GAMG:  Solving for Phi, Initial residual = 0.00072567, Final residual = 6.14208e-06, No Iterations 8
Continuity error = 0.0114812
Interpolated velocity error = 3.87779e-05

Calculating approximate pressure field
GAMG:  Solving for p, Initial residual = 1, Final residual = 0.00980455, No Iterations 3
GAMG:  Solving for p, Initial residual = 0.0117225, Final residual = 0.00010592, No Iterations 8
GAMG:  Solving for p, Initial residual = 0.000833722, Final residual = 6.94115e-06, No Iterations 11
GAMG:  Solving for p, Initial residual = 0.000218329, Final residual = 1.84905e-06, No Iterations 9
ExecutionTime = 0.54 s  ClockTime = 1 s

End

/*---------------------------------------------------------------------------*\
| =========                 |                                                 |
| \\      /  F ield         | OpenFOAM: The Open Source CFD Toolbox           |
|  \\    /   O peration     | Version:  5.x                                   |
|   \\  /    A nd           | Web:      www.OpenFOAM.org                      |
|    \\/     M anipulation  |                                                 |
\*---------------------------------------------------------------------------*/
Build  : 5.x-7f7d351b741b
Exec   : potentialFoam -writep
Date   : Sep 20 2021
Time   : 13:08:06
Host   : "jupiter"
PID    : 7048
I/O    : uncollated
Case   : /lus/scratch/mellis/cray_labs/smartsim-openFOAM/data_generation/Data_Generation_Model/Check/Setup
nProcs : 1
sigFpe : Floating point exception trapping - not supported on this platform
fileModificationChecking : Monitoring run-time modified files using timeStampMaster (fileModificationSkew 10)
allowSystemOperations : Allowing user-supplied system call operations

// * * * * * * * * * * * * * * * * * * * * * * * * * * * * * * * * * * * * * //
Create time

--> FOAM Warning : 
    From function void* Foam::dlOpen(const Foam::fileName&, bool)
    in file POSIX.C at line 1236
    dlopen error : /home/users/mellis/OpenFOAM/mellis-5.x/platforms/crayxcGccDPInt32Opt/lib/SA_Detailed.so: undefined symbol: _ZTIN4Foam29incompressibleTurbulenceModelE
--> FOAM Warning : 
    From function bool Foam::dlLibraryTable::open(const Foam::fileName&, bool)
    in file db/dynamicLibrary/dlLibraryTable/dlLibraryTable.C at line 105
    could not load "SA_Detailed.so"
Create mesh for time = 0


potentialFlow: Operating solver in PISO mode

Reading velocity field U

Constructing pressure field p

Constructing velocity potential field Phi

No MRF models present


Calculating potential flow
GAMG:  Solving for Phi, Initial residual = 1, Final residual = 0.00951713, No Iterations 45
GAMG:  Solving for Phi, Initial residual = 0.387565, Final residual = 0.00338537, No Iterations 2
GAMG:  Solving for Phi, Initial residual = 0.0105713, Final residual = 7.67108e-05, No Iterations 5
GAMG:  Solving for Phi, Initial residual = 0.00072567, Final residual = 6.14208e-06, No Iterations 8
Continuity error = 0.0114812
Interpolated velocity error = 3.87779e-05

Calculating approximate pressure field
GAMG:  Solving for p, Initial residual = 1, Final residual = 0.00980455, No Iterations 3
GAMG:  Solving for p, Initial residual = 0.0117225, Final residual = 0.00010592, No Iterations 8
GAMG:  Solving for p, Initial residual = 0.000833722, Final residual = 6.94115e-06, No Iterations 11
GAMG:  Solving for p, Initial residual = 0.000218329, Final residual = 1.84905e-06, No Iterations 9
ExecutionTime = 0.53 s  ClockTime = 1 s

End

