/*---------------------------------------------------------------------------*\
| =========                 |                                                 |
| \\      /  F ield         | OpenFOAM: The Open Source CFD Toolbox           |
|  \\    /   O peration     | Version:  5.x                                   |
|   \\  /    A nd           | Web:      www.OpenFOAM.org                      |
|    \\/     M anipulation  |                                                 |
\*---------------------------------------------------------------------------*/
Build  : 5.x-7f7d351b741b
Exec   : simpleFoam
Date   : Sep 20 2021
Time   : 12:58:13
Host   : "jupiter"
PID    : 25110
I/O    : uncollated
Case   : /lus/scratch/mellis/cray_labs/smartsim-openFOAM/data_generation/Data_Generation_Model/Check
nProcs : 1
sigFpe : Floating point exception trapping - not supported on this platform
fileModificationChecking : Monitoring run-time modified files using timeStampMaster (fileModificationSkew 10)
allowSystemOperations : Allowing user-supplied system call operations

// * * * * * * * * * * * * * * * * * * * * * * * * * * * * * * * * * * * * * //
Create time

Create mesh for time = 0


SIMPLE: convergence criteria
    field p	 tolerance 0.001
    field U	 tolerance 1e-06

Reading field p

Reading field U

Reading/calculating face flux field phi

Selecting incompressible transport model Newtonian
Selecting turbulence model type RAS
Selecting RAS turbulence model SA_Detailed
Selecting patchDistMethod meshWave
RAS
{
    RASModel        SA_Detailed;
    turbulence      on;
    printCoeffs     on;
    sigmaNut        0.66666;
    kappa           0.41;
    Cb1             0.1355;
    Cb2             0.622;
    Cw2             0.3;
    Cw3             2;
    Cv1             7.1;
    Cs              0.3;
}

No MRF models present

No finite volume options present


Starting time loop

Time = 1

DILUPBiCG:  Solving for Ux, Initial residual = 0.0241704, Final residual = 0.000123372, No Iterations 1
DILUPBiCG:  Solving for Uy, Initial residual = 0.00672521, Final residual = 7.48408e-05, No Iterations 1
GAMG:  Solving for p, Initial residual = 0.49213, Final residual = 0.00441682, No Iterations 7
time step continuity errors : sum local = 0.00928202, global = 0.000531342, cumulative = 0.000531342
DILUPBiCG:  Solving for nuTilda, Initial residual = 1, Final residual = 0.000315556, No Iterations 1
ExecutionTime = 0.29 s  ClockTime = 1 s

Time = 2

DILUPBiCG:  Solving for Ux, Initial residual = 0.0157899, Final residual = 8.5579e-05, No Iterations 1
DILUPBiCG:  Solving for Uy, Initial residual = 0.00534332, Final residual = 7.2878e-05, No Iterations 1
GAMG:  Solving for p, Initial residual = 0.521827, Final residual = 0.00518985, No Iterations 7
time step continuity errors : sum local = 0.010829, global = -0.00124235, cumulative = -0.000711009
DILUPBiCG:  Solving for nuTilda, Initial residual = 0.223851, Final residual = 0.000122183, No Iterations 1
ExecutionTime = 0.34 s  ClockTime = 1 s

Time = 3

DILUPBiCG:  Solving for Ux, Initial residual = 0.0110027, Final residual = 6.05394e-05, No Iterations 1
DILUPBiCG:  Solving for Uy, Initial residual = 0.00353364, Final residual = 0.000188752, No Iterations 1
GAMG:  Solving for p, Initial residual = 0.476979, Final residual = 0.0036265, No Iterations 7
time step continuity errors : sum local = 0.0071454, global = -0.000150484, cumulative = -0.000861493
DILUPBiCG:  Solving for nuTilda, Initial residual = 0.0979773, Final residual = 8.49935e-05, No Iterations 1
ExecutionTime = 0.4 s  ClockTime = 1 s

Time = 4

DILUPBiCG:  Solving for Ux, Initial residual = 0.00854614, Final residual = 5.12687e-05, No Iterations 1
DILUPBiCG:  Solving for Uy, Initial residual = 0.00271448, Final residual = 3.20973e-05, No Iterations 1
GAMG:  Solving for p, Initial residual = 0.344532, Final residual = 0.00176478, No Iterations 7
time step continuity errors : sum local = 0.00354166, global = 0.000184533, cumulative = -0.000676959
DILUPBiCG:  Solving for nuTilda, Initial residual = 0.0420524, Final residual = 8.72681e-05, No Iterations 1
ExecutionTime = 0.46 s  ClockTime = 1 s

Time = 5

DILUPBiCG:  Solving for Ux, Initial residual = 0.00716641, Final residual = 4.78199e-05, No Iterations 1
DILUPBiCG:  Solving for Uy, Initial residual = 0.00344476, Final residual = 4.26143e-05, No Iterations 1
GAMG:  Solving for p, Initial residual = 0.235898, Final residual = 0.00212693, No Iterations 5
time step continuity errors : sum local = 0.00440584, global = -0.000467423, cumulative = -0.00114438
DILUPBiCG:  Solving for nuTilda, Initial residual = 0.0262173, Final residual = 7.92497e-05, No Iterations 1
ExecutionTime = 0.52 s  ClockTime = 1 s

Time = 6

DILUPBiCG:  Solving for Ux, Initial residual = 0.00606248, Final residual = 4.36771e-05, No Iterations 1
DILUPBiCG:  Solving for Uy, Initial residual = 0.00359213, Final residual = 4.39677e-05, No Iterations 1
GAMG:  Solving for p, Initial residual = 0.264769, Final residual = 0.00192907, No Iterations 8
time step continuity errors : sum local = 0.00375878, global = 0.000625991, cumulative = -0.000518392
DILUPBiCG:  Solving for nuTilda, Initial residual = 0.0218243, Final residual = 7.42118e-05, No Iterations 1
ExecutionTime = 0.58 s  ClockTime = 1 s

Time = 7

DILUPBiCG:  Solving for Ux, Initial residual = 0.00501775, Final residual = 3.77343e-05, No Iterations 1
DILUPBiCG:  Solving for Uy, Initial residual = 0.00311807, Final residual = 3.7715e-05, No Iterations 1
GAMG:  Solving for p, Initial residual = 0.318167, Final residual = 0.00208526, No Iterations 8
time step continuity errors : sum local = 0.00385595, global = 0.000352111, cumulative = -0.000166281
DILUPBiCG:  Solving for nuTilda, Initial residual = 0.0197674, Final residual = 6.76887e-05, No Iterations 1
ExecutionTime = 0.64 s  ClockTime = 1 s

Time = 8

DILUPBiCG:  Solving for Ux, Initial residual = 0.00409236, Final residual = 3.09355e-05, No Iterations 1
DILUPBiCG:  Solving for Uy, Initial residual = 0.00237499, Final residual = 2.76554e-05, No Iterations 1
GAMG:  Solving for p, Initial residual = 0.285941, Final residual = 0.00213494, No Iterations 8
time step continuity errors : sum local = 0.00427086, global = -0.000368355, cumulative = -0.000534635
DILUPBiCG:  Solving for nuTilda, Initial residual = 0.0191408, Final residual = 6.28552e-05, No Iterations 1
ExecutionTime = 0.71 s  ClockTime = 1 s

Time = 9

DILUPBiCG:  Solving for Ux, Initial residual = 0.00338956, Final residual = 2.5823e-05, No Iterations 1
DILUPBiCG:  Solving for Uy, Initial residual = 0.0019922, Final residual = 2.61171e-05, No Iterations 1
GAMG:  Solving for p, Initial residual = 0.235545, Final residual = 0.00173876, No Iterations 7
time step continuity errors : sum local = 0.00368864, global = 0.000205998, cumulative = -0.000328637
DILUPBiCG:  Solving for nuTilda, Initial residual = 0.0187284, Final residual = 5.98121e-05, No Iterations 1
ExecutionTime = 0.77 s  ClockTime = 1 s

Time = 10

DILUPBiCG:  Solving for Ux, Initial residual = 0.00299976, Final residual = 0.000110206, No Iterations 1
DILUPBiCG:  Solving for Uy, Initial residual = 0.00228549, Final residual = 6.22175e-05, No Iterations 1
GAMG:  Solving for p, Initial residual = 0.186304, Final residual = 0.000985398, No Iterations 7
time step continuity errors : sum local = 0.00214559, global = -7.22317e-05, cumulative = -0.000400869
DILUPBiCG:  Solving for nuTilda, Initial residual = 0.0185789, Final residual = 5.75293e-05, No Iterations 1
ExecutionTime = 0.83 s  ClockTime = 1 s

Time = 11

DILUPBiCG:  Solving for Ux, Initial residual = 0.00279068, Final residual = 4.52397e-05, No Iterations 1
DILUPBiCG:  Solving for Uy, Initial residual = 0.0025665, Final residual = 0.000144788, No Iterations 1
GAMG:  Solving for p, Initial residual = 0.158439, Final residual = 0.00126902, No Iterations 4
time step continuity errors : sum local = 0.0027799, global = -5.00768e-05, cumulative = -0.000450946
DILUPBiCG:  Solving for nuTilda, Initial residual = 0.0184231, Final residual = 5.60042e-05, No Iterations 1
ExecutionTime = 0.87 s  ClockTime = 2 s

Time = 12

DILUPBiCG:  Solving for Ux, Initial residual = 0.00262687, Final residual = 3.30121e-05, No Iterations 1
DILUPBiCG:  Solving for Uy, Initial residual = 0.00262808, Final residual = 0.000179829, No Iterations 1
GAMG:  Solving for p, Initial residual = 0.166569, Final residual = 0.00110848, No Iterations 6
time step continuity errors : sum local = 0.00244266, global = -0.000297907, cumulative = -0.000748853
DILUPBiCG:  Solving for nuTilda, Initial residual = 0.0185929, Final residual = 5.51171e-05, No Iterations 1
ExecutionTime = 0.93 s  ClockTime = 2 s

Time = 13

DILUPBiCG:  Solving for Ux, Initial residual = 0.0025234, Final residual = 2.9838e-05, No Iterations 1
DILUPBiCG:  Solving for Uy, Initial residual = 0.00256409, Final residual = 0.000122458, No Iterations 1
GAMG:  Solving for p, Initial residual = 0.170543, Final residual = 0.0014087, No Iterations 6
time step continuity errors : sum local = 0.0030069, global = -0.000284735, cumulative = -0.00103359
DILUPBiCG:  Solving for nuTilda, Initial residual = 0.0183707, Final residual = 5.48061e-05, No Iterations 1
ExecutionTime = 0.99 s  ClockTime = 2 s

Time = 14

DILUPBiCG:  Solving for Ux, Initial residual = 0.0024537, Final residual = 2.85712e-05, No Iterations 1
DILUPBiCG:  Solving for Uy, Initial residual = 0.00244843, Final residual = 7.66274e-05, No Iterations 1
GAMG:  Solving for p, Initial residual = 0.170011, Final residual = 0.00140074, No Iterations 6
time step continuity errors : sum local = 0.0029378, global = -0.000196927, cumulative = -0.00123052
DILUPBiCG:  Solving for nuTilda, Initial residual = 0.0185924, Final residual = 5.48822e-05, No Iterations 1
ExecutionTime = 1.05 s  ClockTime = 2 s

Time = 15

DILUPBiCG:  Solving for Ux, Initial residual = 0.00240248, Final residual = 2.8142e-05, No Iterations 1
DILUPBiCG:  Solving for Uy, Initial residual = 0.00236911, Final residual = 5.79262e-05, No Iterations 1
GAMG:  Solving for p, Initial residual = 0.168365, Final residual = 0.00134446, No Iterations 6
time step continuity errors : sum local = 0.00278458, global = 0.000157631, cumulative = -0.00107289
DILUPBiCG:  Solving for nuTilda, Initial residual = 0.0183796, Final residual = 5.51765e-05, No Iterations 1
ExecutionTime = 1.1 s  ClockTime = 2 s

Time = 16

DILUPBiCG:  Solving for Ux, Initial residual = 0.0023544, Final residual = 2.81517e-05, No Iterations 1
DILUPBiCG:  Solving for Uy, Initial residual = 0.00238688, Final residual = 5.2783e-05, No Iterations 1
GAMG:  Solving for p, Initial residual = 0.16927, Final residual = 0.00164066, No Iterations 4
time step continuity errors : sum local = 0.00339707, global = -6.93121e-05, cumulative = -0.0011422
DILUPBiCG:  Solving for nuTilda, Initial residual = 0.0186109, Final residual = 5.58194e-05, No Iterations 1
ExecutionTime = 1.15 s  ClockTime = 2 s

Time = 17

DILUPBiCG:  Solving for Ux, Initial residual = 0.00229996, Final residual = 2.83598e-05, No Iterations 1
DILUPBiCG:  Solving for Uy, Initial residual = 0.00248473, Final residual = 5.57762e-05, No Iterations 1
GAMG:  Solving for p, Initial residual = 0.193172, Final residual = 0.0017296, No Iterations 4
time step continuity errors : sum local = 0.00366813, global = 2.51984e-05, cumulative = -0.001117
DILUPBiCG:  Solving for nuTilda, Initial residual = 0.0185545, Final residual = 5.6419e-05, No Iterations 1
ExecutionTime = 1.2 s  ClockTime = 2 s

Time = 18

DILUPBiCG:  Solving for Ux, Initial residual = 0.00226233, Final residual = 2.92009e-05, No Iterations 1
DILUPBiCG:  Solving for Uy, Initial residual = 0.00265183, Final residual = 6.93584e-05, No Iterations 1
GAMG:  Solving for p, Initial residual = 0.230781, Final residual = 0.00221331, No Iterations 4
time step continuity errors : sum local = 0.0048499, global = 8.59342e-05, cumulative = -0.00103106
DILUPBiCG:  Solving for nuTilda, Initial residual = 0.0187276, Final residual = 5.75381e-05, No Iterations 1
ExecutionTime = 1.25 s  ClockTime = 2 s

Time = 19

DILUPBiCG:  Solving for Ux, Initial residual = 0.00224503, Final residual = 3.08424e-05, No Iterations 1
DILUPBiCG:  Solving for Uy, Initial residual = 0.00289509, Final residual = 0.000117344, No Iterations 1
GAMG:  Solving for p, Initial residual = 0.262104, Final residual = 0.00151188, No Iterations 5
time step continuity errors : sum local = 0.00347342, global = 3.05915e-05, cumulative = -0.00100047
DILUPBiCG:  Solving for nuTilda, Initial residual = 0.0186096, Final residual = 5.85541e-05, No Iterations 1
ExecutionTime = 1.3 s  ClockTime = 2 s

Time = 20

DILUPBiCG:  Solving for Ux, Initial residual = 0.00225538, Final residual = 3.35063e-05, No Iterations 1
DILUPBiCG:  Solving for Uy, Initial residual = 0.00322911, Final residual = 1.27236e-06, No Iterations 2
GAMG:  Solving for p, Initial residual = 0.267612, Final residual = 0.00155423, No Iterations 5
time step continuity errors : sum local = 0.00369291, global = 9.93813e-06, cumulative = -0.000990535
DILUPBiCG:  Solving for nuTilda, Initial residual = 0.0187836, Final residual = 5.98841e-05, No Iterations 1
ExecutionTime = 1.36 s  ClockTime = 2 s

Time = 21

DILUPBiCG:  Solving for Ux, Initial residual = 0.00228075, Final residual = 3.72089e-05, No Iterations 1
DILUPBiCG:  Solving for Uy, Initial residual = 0.00358681, Final residual = 8.7413e-05, No Iterations 1
GAMG:  Solving for p, Initial residual = 0.268253, Final residual = 0.00254561, No Iterations 4
time step continuity errors : sum local = 0.00613062, global = -6.63226e-06, cumulative = -0.000997167
DILUPBiCG:  Solving for nuTilda, Initial residual = 0.0188564, Final residual = 6.10907e-05, No Iterations 1
ExecutionTime = 1.41 s  ClockTime = 2 s

Time = 22

DILUPBiCG:  Solving for Ux, Initial residual = 0.00229006, Final residual = 3.9753e-05, No Iterations 1
DILUPBiCG:  Solving for Uy, Initial residual = 0.00383849, Final residual = 7.30722e-05, No Iterations 1
GAMG:  Solving for p, Initial residual = 0.265295, Final residual = 0.00223868, No Iterations 4
time step continuity errors : sum local = 0.00546265, global = -5.00754e-05, cumulative = -0.00104724
DILUPBiCG:  Solving for nuTilda, Initial residual = 0.0190221, Final residual = 6.25152e-05, No Iterations 1
ExecutionTime = 1.46 s  ClockTime = 2 s

Time = 23

DILUPBiCG:  Solving for Ux, Initial residual = 0.00226542, Final residual = 3.93715e-05, No Iterations 1
DILUPBiCG:  Solving for Uy, Initial residual = 0.00388594, Final residual = 9.88195e-05, No Iterations 1
GAMG:  Solving for p, Initial residual = 0.252185, Final residual = 0.00243356, No Iterations 4
time step continuity errors : sum local = 0.00601654, global = -0.000179429, cumulative = -0.00122667
DILUPBiCG:  Solving for nuTilda, Initial residual = 0.0190275, Final residual = 6.38042e-05, No Iterations 1
ExecutionTime = 1.51 s  ClockTime = 2 s

Time = 24

DILUPBiCG:  Solving for Ux, Initial residual = 0.00221131, Final residual = 3.73588e-05, No Iterations 1
DILUPBiCG:  Solving for Uy, Initial residual = 0.00376389, Final residual = 1.24835e-06, No Iterations 2
GAMG:  Solving for p, Initial residual = 0.227466, Final residual = 0.00134201, No Iterations 5
time step continuity errors : sum local = 0.00336972, global = -0.000184474, cumulative = -0.00141115
DILUPBiCG:  Solving for nuTilda, Initial residual = 0.0191898, Final residual = 6.5461e-05, No Iterations 1
ExecutionTime = 1.56 s  ClockTime = 2 s

Time = 25

DILUPBiCG:  Solving for Ux, Initial residual = 0.00213296, Final residual = 3.62378e-05, No Iterations 1
DILUPBiCG:  Solving for Uy, Initial residual = 0.00356237, Final residual = 0.000170408, No Iterations 1
GAMG:  Solving for p, Initial residual = 0.206978, Final residual = 0.00141061, No Iterations 5
time step continuity errors : sum local = 0.00354472, global = -0.000142532, cumulative = -0.00155368
DILUPBiCG:  Solving for nuTilda, Initial residual = 0.0193002, Final residual = 6.70574e-05, No Iterations 1
ExecutionTime = 1.62 s  ClockTime = 2 s

Time = 26

DILUPBiCG:  Solving for Ux, Initial residual = 0.00203522, Final residual = 3.40878e-05, No Iterations 1
DILUPBiCG:  Solving for Uy, Initial residual = 0.00332831, Final residual = 9.06212e-05, No Iterations 1
GAMG:  Solving for p, Initial residual = 0.189811, Final residual = 0.00124825, No Iterations 5
time step continuity errors : sum local = 0.00310157, global = -2.54369e-05, cumulative = -0.00157911
DILUPBiCG:  Solving for nuTilda, Initial residual = 0.0194202, Final residual = 6.87751e-05, No Iterations 1
ExecutionTime = 1.67 s  ClockTime = 2 s

Time = 27

DILUPBiCG:  Solving for Ux, Initial residual = 0.00193617, Final residual = 3.25434e-05, No Iterations 1
DILUPBiCG:  Solving for Uy, Initial residual = 0.00309673, Final residual = 7.28895e-05, No Iterations 1
GAMG:  Solving for p, Initial residual = 0.178086, Final residual = 0.00152196, No Iterations 4
time step continuity errors : sum local = 0.00372256, global = -8.8051e-05, cumulative = -0.00166717
DILUPBiCG:  Solving for nuTilda, Initial residual = 0.0194966, Final residual = 7.03872e-05, No Iterations 1
ExecutionTime = 1.72 s  ClockTime = 2 s

Time = 28

DILUPBiCG:  Solving for Ux, Initial residual = 0.00185217, Final residual = 2.97205e-05, No Iterations 1
DILUPBiCG:  Solving for Uy, Initial residual = 0.00295785, Final residual = 7.68297e-05, No Iterations 1
GAMG:  Solving for p, Initial residual = 0.174623, Final residual = 0.00147707, No Iterations 4
time step continuity errors : sum local = 0.00357389, global = -6.77811e-06, cumulative = -0.00167394
DILUPBiCG:  Solving for nuTilda, Initial residual = 0.0196011, Final residual = 7.2263e-05, No Iterations 1
ExecutionTime = 1.78 s  ClockTime = 2 s

Time = 29

DILUPBiCG:  Solving for Ux, Initial residual = 0.00179742, Final residual = 2.67814e-05, No Iterations 1
DILUPBiCG:  Solving for Uy, Initial residual = 0.00293247, Final residual = 0.000108548, No Iterations 1
GAMG:  Solving for p, Initial residual = 0.169454, Final residual = 0.0015227, No Iterations 4
time step continuity errors : sum local = 0.0036659, global = 6.35496e-05, cumulative = -0.00161039
DILUPBiCG:  Solving for nuTilda, Initial residual = 0.0196613, Final residual = 7.41743e-05, No Iterations 1
ExecutionTime = 1.83 s  ClockTime = 2 s

Time = 30

DILUPBiCG:  Solving for Ux, Initial residual = 0.00178347, Final residual = 2.4773e-05, No Iterations 1
DILUPBiCG:  Solving for Uy, Initial residual = 0.00306531, Final residual = 0.000302967, No Iterations 1
GAMG:  Solving for p, Initial residual = 0.171679, Final residual = 0.00147519, No Iterations 4
time step continuity errors : sum local = 0.00355766, global = 7.3298e-05, cumulative = -0.0015371
DILUPBiCG:  Solving for nuTilda, Initial residual = 0.019665, Final residual = 7.58971e-05, No Iterations 1
ExecutionTime = 1.87 s  ClockTime = 3 s

Time = 31

DILUPBiCG:  Solving for Ux, Initial residual = 0.0017989, Final residual = 2.31334e-05, No Iterations 1
DILUPBiCG:  Solving for Uy, Initial residual = 0.00325495, Final residual = 1.30721e-06, No Iterations 2
GAMG:  Solving for p, Initial residual = 0.182754, Final residual = 0.00148973, No Iterations 4
time step continuity errors : sum local = 0.00366992, global = -3.50809e-06, cumulative = -0.0015406
DILUPBiCG:  Solving for nuTilda, Initial residual = 0.0190338, Final residual = 7.51438e-05, No Iterations 1
ExecutionTime = 1.92 s  ClockTime = 3 s

Time = 32

DILUPBiCG:  Solving for Ux, Initial residual = 0.00182691, Final residual = 2.22992e-05, No Iterations 1
DILUPBiCG:  Solving for Uy, Initial residual = 0.00347387, Final residual = 1.66008e-06, No Iterations 2
GAMG:  Solving for p, Initial residual = 0.195763, Final residual = 0.00147617, No Iterations 4
time step continuity errors : sum local = 0.00374837, global = -4.94231e-05, cumulative = -0.00159003
DILUPBiCG:  Solving for nuTilda, Initial residual = 0.0181409, Final residual = 7.3316e-05, No Iterations 1
ExecutionTime = 1.98 s  ClockTime = 3 s

Time = 33

DILUPBiCG:  Solving for Ux, Initial residual = 0.00186672, Final residual = 2.18801e-05, No Iterations 1
DILUPBiCG:  Solving for Uy, Initial residual = 0.00367196, Final residual = 0.000108871, No Iterations 1
GAMG:  Solving for p, Initial residual = 0.211159, Final residual = 0.00150393, No Iterations 4
time step continuity errors : sum local = 0.00400417, global = -8.61457e-05, cumulative = -0.00167617
DILUPBiCG:  Solving for nuTilda, Initial residual = 0.0173537, Final residual = 7.19535e-05, No Iterations 1
ExecutionTime = 2.02 s  ClockTime = 3 s

Time = 34

DILUPBiCG:  Solving for Ux, Initial residual = 0.00190746, Final residual = 2.15237e-05, No Iterations 1
DILUPBiCG:  Solving for Uy, Initial residual = 0.0038562, Final residual = 0.000109769, No Iterations 1
GAMG:  Solving for p, Initial residual = 0.253973, Final residual = 0.00214245, No Iterations 3
time step continuity errors : sum local = 0.00586245, global = -0.000126152, cumulative = -0.00180232
DILUPBiCG:  Solving for nuTilda, Initial residual = 0.0166174, Final residual = 7.04461e-05, No Iterations 1
ExecutionTime = 2.07 s  ClockTime = 3 s

Time = 35

DILUPBiCG:  Solving for Ux, Initial residual = 0.00193456, Final residual = 2.09898e-05, No Iterations 1
DILUPBiCG:  Solving for Uy, Initial residual = 0.00397857, Final residual = 1.87853e-06, No Iterations 2
GAMG:  Solving for p, Initial residual = 0.308094, Final residual = 0.00237581, No Iterations 3
time step continuity errors : sum local = 0.00629672, global = -0.000207589, cumulative = -0.00200991
DILUPBiCG:  Solving for nuTilda, Initial residual = 0.0159513, Final residual = 6.88606e-05, No Iterations 1
ExecutionTime = 2.12 s  ClockTime = 3 s

Time = 36

DILUPBiCG:  Solving for Ux, Initial residual = 0.00196187, Final residual = 2.0728e-05, No Iterations 1
DILUPBiCG:  Solving for Uy, Initial residual = 0.00405722, Final residual = 0.000106739, No Iterations 1
GAMG:  Solving for p, Initial residual = 0.336973, Final residual = 0.00257385, No Iterations 3
time step continuity errors : sum local = 0.00679243, global = -0.000321431, cumulative = -0.00233134
DILUPBiCG:  Solving for nuTilda, Initial residual = 0.0153501, Final residual = 6.75835e-05, No Iterations 1
ExecutionTime = 2.16 s  ClockTime = 3 s

Time = 37

DILUPBiCG:  Solving for Ux, Initial residual = 0.00199251, Final residual = 2.06578e-05, No Iterations 1
DILUPBiCG:  Solving for Uy, Initial residual = 0.00416109, Final residual = 7.53804e-05, No Iterations 1
GAMG:  Solving for p, Initial residual = 0.324685, Final residual = 0.00271108, No Iterations 3
time step continuity errors : sum local = 0.00742124, global = -0.000436732, cumulative = -0.00276808
DILUPBiCG:  Solving for nuTilda, Initial residual = 0.014785, Final residual = 6.63754e-05, No Iterations 1
ExecutionTime = 2.2 s  ClockTime = 3 s

Time = 38

DILUPBiCG:  Solving for Ux, Initial residual = 0.00201916, Final residual = 2.08259e-05, No Iterations 1
DILUPBiCG:  Solving for Uy, Initial residual = 0.00428226, Final residual = 7.03274e-05, No Iterations 1
GAMG:  Solving for p, Initial residual = 0.306582, Final residual = 0.00280942, No Iterations 3
time step continuity errors : sum local = 0.00794962, global = -0.000497315, cumulative = -0.00326539
DILUPBiCG:  Solving for nuTilda, Initial residual = 0.0142611, Final residual = 6.52682e-05, No Iterations 1
ExecutionTime = 2.25 s  ClockTime = 3 s

Time = 39

DILUPBiCG:  Solving for Ux, Initial residual = 0.00204272, Final residual = 2.11081e-05, No Iterations 1
DILUPBiCG:  Solving for Uy, Initial residual = 0.00439199, Final residual = 6.9903e-05, No Iterations 1
GAMG:  Solving for p, Initial residual = 0.29179, Final residual = 0.00289833, No Iterations 3
time step continuity errors : sum local = 0.00844441, global = -0.000476268, cumulative = -0.00374166
DILUPBiCG:  Solving for nuTilda, Initial residual = 0.0137793, Final residual = 6.43445e-05, No Iterations 1
ExecutionTime = 2.29 s  ClockTime = 3 s

Time = 40

DILUPBiCG:  Solving for Ux, Initial residual = 0.00206503, Final residual = 2.13219e-05, No Iterations 1
DILUPBiCG:  Solving for Uy, Initial residual = 0.0044884, Final residual = 7.372e-05, No Iterations 1
GAMG:  Solving for p, Initial residual = 0.275131, Final residual = 0.00201584, No Iterations 5
time step continuity errors : sum local = 0.00600556, global = -8.48176e-05, cumulative = -0.00382648
DILUPBiCG:  Solving for nuTilda, Initial residual = 0.0133278, Final residual = 6.34582e-05, No Iterations 1
ExecutionTime = 2.35 s  ClockTime = 3 s

Time = 41

DILUPBiCG:  Solving for Ux, Initial residual = 0.0021148, Final residual = 2.18263e-05, No Iterations 1
DILUPBiCG:  Solving for Uy, Initial residual = 0.00456903, Final residual = 7.58731e-05, No Iterations 1
GAMG:  Solving for p, Initial residual = 0.256816, Final residual = 0.00231576, No Iterations 3
time step continuity errors : sum local = 0.00678939, global = -0.000342143, cumulative = -0.00416862
DILUPBiCG:  Solving for nuTilda, Initial residual = 0.012908, Final residual = 6.26478e-05, No Iterations 1
ExecutionTime = 2.39 s  ClockTime = 3 s

Time = 42

DILUPBiCG:  Solving for Ux, Initial residual = 0.00211209, Final residual = 2.18166e-05, No Iterations 1
DILUPBiCG:  Solving for Uy, Initial residual = 0.0045886, Final residual = 7.21883e-05, No Iterations 1
GAMG:  Solving for p, Initial residual = 0.232723, Final residual = 0.00203319, No Iterations 3
time step continuity errors : sum local = 0.00599098, global = -0.000190222, cumulative = -0.00435884
DILUPBiCG:  Solving for nuTilda, Initial residual = 0.0125172, Final residual = 6.18599e-05, No Iterations 1
ExecutionTime = 2.44 s  ClockTime = 3 s

Time = 43

DILUPBiCG:  Solving for Ux, Initial residual = 0.00210005, Final residual = 2.17596e-05, No Iterations 1
DILUPBiCG:  Solving for Uy, Initial residual = 0.00457863, Final residual = 6.84793e-05, No Iterations 1
GAMG:  Solving for p, Initial residual = 0.221387, Final residual = 0.00164127, No Iterations 3
time step continuity errors : sum local = 0.00482625, global = -1.85371e-05, cumulative = -0.00437738
DILUPBiCG:  Solving for nuTilda, Initial residual = 0.0121447, Final residual = 6.10342e-05, No Iterations 1
ExecutionTime = 2.48 s  ClockTime = 3 s

Time = 44

DILUPBiCG:  Solving for Ux, Initial residual = 0.00208009, Final residual = 2.15728e-05, No Iterations 1
DILUPBiCG:  Solving for Uy, Initial residual = 0.0045439, Final residual = 6.6806e-05, No Iterations 1
GAMG:  Solving for p, Initial residual = 0.215321, Final residual = 0.00134874, No Iterations 3
time step continuity errors : sum local = 0.00397815, global = 0.000130877, cumulative = -0.0042465
DILUPBiCG:  Solving for nuTilda, Initial residual = 0.0117959, Final residual = 6.02042e-05, No Iterations 1
ExecutionTime = 2.53 s  ClockTime = 3 s

Time = 45

DILUPBiCG:  Solving for Ux, Initial residual = 0.00205404, Final residual = 2.12803e-05, No Iterations 1
DILUPBiCG:  Solving for Uy, Initial residual = 0.00448706, Final residual = 6.9621e-05, No Iterations 1
GAMG:  Solving for p, Initial residual = 0.219846, Final residual = 0.00216147, No Iterations 2
time step continuity errors : sum local = 0.00644133, global = 0.000279823, cumulative = -0.00396668
DILUPBiCG:  Solving for nuTilda, Initial residual = 0.0114685, Final residual = 5.93398e-05, No Iterations 1
ExecutionTime = 2.57 s  ClockTime = 3 s

Time = 46

DILUPBiCG:  Solving for Ux, Initial residual = 0.0020209, Final residual = 2.09397e-05, No Iterations 1
DILUPBiCG:  Solving for Uy, Initial residual = 0.00445636, Final residual = 8.19008e-05, No Iterations 1
GAMG:  Solving for p, Initial residual = 0.224773, Final residual = 0.00173122, No Iterations 3
time step continuity errors : sum local = 0.00523578, global = 2.88502e-05, cumulative = -0.00393783
DILUPBiCG:  Solving for nuTilda, Initial residual = 0.0111557, Final residual = 5.85246e-05, No Iterations 1
ExecutionTime = 2.62 s  ClockTime = 3 s

Time = 47

DILUPBiCG:  Solving for Ux, Initial residual = 0.00198279, Final residual = 2.05906e-05, No Iterations 1
DILUPBiCG:  Solving for Uy, Initial residual = 0.00443119, Final residual = 9.72972e-05, No Iterations 1
GAMG:  Solving for p, Initial residual = 0.226268, Final residual = 0.00148412, No Iterations 3
time step continuity errors : sum local = 0.00462484, global = 0.000181033, cumulative = -0.0037568
DILUPBiCG:  Solving for nuTilda, Initial residual = 0.0108662, Final residual = 5.77748e-05, No Iterations 1
ExecutionTime = 2.66 s  ClockTime = 3 s

Time = 48

DILUPBiCG:  Solving for Ux, Initial residual = 0.00195645, Final residual = 2.03591e-05, No Iterations 1
DILUPBiCG:  Solving for Uy, Initial residual = 0.00444677, Final residual = 0.000109833, No Iterations 1
GAMG:  Solving for p, Initial residual = 0.228398, Final residual = 0.00151317, No Iterations 3
time step continuity errors : sum local = 0.00486792, global = 0.000245782, cumulative = -0.00351101
DILUPBiCG:  Solving for nuTilda, Initial residual = 0.0105922, Final residual = 5.69906e-05, No Iterations 1
ExecutionTime = 2.71 s  ClockTime = 3 s

Time = 49

DILUPBiCG:  Solving for Ux, Initial residual = 0.00194537, Final residual = 2.02307e-05, No Iterations 1
DILUPBiCG:  Solving for Uy, Initial residual = 0.00449563, Final residual = 0.000111933, No Iterations 1
GAMG:  Solving for p, Initial residual = 0.235968, Final residual = 0.00174076, No Iterations 3
time step continuity errors : sum local = 0.00576915, global = 0.000186012, cumulative = -0.003325
DILUPBiCG:  Solving for nuTilda, Initial residual = 0.0103293, Final residual = 5.61581e-05, No Iterations 1
ExecutionTime = 2.76 s  ClockTime = 3 s

Time = 50

DILUPBiCG:  Solving for Ux, Initial residual = 0.00194826, Final residual = 1.99768e-05, No Iterations 1
DILUPBiCG:  Solving for Uy, Initial residual = 0.00459335, Final residual = 0.000100669, No Iterations 1
GAMG:  Solving for p, Initial residual = 0.250786, Final residual = 0.00191085, No Iterations 3
time step continuity errors : sum local = 0.00636134, global = 7.87378e-05, cumulative = -0.00324626
DILUPBiCG:  Solving for nuTilda, Initial residual = 0.0100876, Final residual = 5.53215e-05, No Iterations 1
ExecutionTime = 2.95 s  ClockTime = 4 s

Time = 51

DILUPBiCG:  Solving for Ux, Initial residual = 0.0019674, Final residual = 1.9746e-05, No Iterations 1
DILUPBiCG:  Solving for Uy, Initial residual = 0.00472715, Final residual = 9.15352e-05, No Iterations 1
GAMG:  Solving for p, Initial residual = 0.273066, Final residual = 0.00210029, No Iterations 3
time step continuity errors : sum local = 0.00688737, global = -5.96285e-05, cumulative = -0.00330589
DILUPBiCG:  Solving for nuTilda, Initial residual = 0.00985192, Final residual = 5.44279e-05, No Iterations 1
ExecutionTime = 3 s  ClockTime = 4 s

Time = 52

DILUPBiCG:  Solving for Ux, Initial residual = 0.00199616, Final residual = 2.01062e-05, No Iterations 1
DILUPBiCG:  Solving for Uy, Initial residual = 0.00489897, Final residual = 9.06515e-05, No Iterations 1
GAMG:  Solving for p, Initial residual = 0.276372, Final residual = 0.00227786, No Iterations 3
time step continuity errors : sum local = 0.00742675, global = -0.000184402, cumulative = -0.0034903
DILUPBiCG:  Solving for nuTilda, Initial residual = 0.00962832, Final residual = 5.34051e-05, No Iterations 1
ExecutionTime = 3.04 s  ClockTime = 4 s

Time = 53

DILUPBiCG:  Solving for Ux, Initial residual = 0.00203009, Final residual = 2.02013e-05, No Iterations 1
DILUPBiCG:  Solving for Uy, Initial residual = 0.00506555, Final residual = 9.07349e-05, No Iterations 1
GAMG:  Solving for p, Initial residual = 0.269731, Final residual = 0.00230982, No Iterations 3
time step continuity errors : sum local = 0.00761266, global = -0.000208506, cumulative = -0.0036988
DILUPBiCG:  Solving for nuTilda, Initial residual = 0.00941819, Final residual = 5.2938e-05, No Iterations 1
ExecutionTime = 3.09 s  ClockTime = 4 s

Time = 54

DILUPBiCG:  Solving for Ux, Initial residual = 0.00205822, Final residual = 2.04227e-05, No Iterations 1
DILUPBiCG:  Solving for Uy, Initial residual = 0.00518599, Final residual = 8.90245e-05, No Iterations 1
GAMG:  Solving for p, Initial residual = 0.259996, Final residual = 0.00236827, No Iterations 3
time step continuity errors : sum local = 0.00783592, global = -6.97104e-05, cumulative = -0.00376851
DILUPBiCG:  Solving for nuTilda, Initial residual = 0.00921924, Final residual = 5.25736e-05, No Iterations 1
ExecutionTime = 3.14 s  ClockTime = 4 s

Time = 55

DILUPBiCG:  Solving for Ux, Initial residual = 0.00207333, Final residual = 2.07162e-05, No Iterations 1
DILUPBiCG:  Solving for Uy, Initial residual = 0.00520977, Final residual = 8.51203e-05, No Iterations 1
GAMG:  Solving for p, Initial residual = 0.250661, Final residual = 0.00165831, No Iterations 4
time step continuity errors : sum local = 0.00546552, global = -0.000908929, cumulative = -0.00467744
DILUPBiCG:  Solving for nuTilda, Initial residual = 0.00902273, Final residual = 5.21048e-05, No Iterations 1
ExecutionTime = 3.19 s  ClockTime = 4 s

Time = 56

DILUPBiCG:  Solving for Ux, Initial residual = 0.00207297, Final residual = 2.09223e-05, No Iterations 1
DILUPBiCG:  Solving for Uy, Initial residual = 0.00510133, Final residual = 8.04602e-05, No Iterations 1
GAMG:  Solving for p, Initial residual = 0.246748, Final residual = 0.00180536, No Iterations 3
time step continuity errors : sum local = 0.00586281, global = -0.00040392, cumulative = -0.00508136
DILUPBiCG:  Solving for nuTilda, Initial residual = 0.00883865, Final residual = 5.17458e-05, No Iterations 1
ExecutionTime = 3.23 s  ClockTime = 4 s

Time = 57

DILUPBiCG:  Solving for Ux, Initial residual = 0.00203744, Final residual = 2.07665e-05, No Iterations 1
DILUPBiCG:  Solving for Uy, Initial residual = 0.00498356, Final residual = 7.8055e-05, No Iterations 1
GAMG:  Solving for p, Initial residual = 0.234414, Final residual = 0.00206667, No Iterations 3
time step continuity errors : sum local = 0.0066768, global = -0.000260074, cumulative = -0.00534144
DILUPBiCG:  Solving for nuTilda, Initial residual = 0.00866362, Final residual = 5.12477e-05, No Iterations 1
ExecutionTime = 3.28 s  ClockTime = 4 s

Time = 58

DILUPBiCG:  Solving for Ux, Initial residual = 0.00200388, Final residual = 2.05267e-05, No Iterations 1
DILUPBiCG:  Solving for Uy, Initial residual = 0.00488009, Final residual = 7.91694e-05, No Iterations 1
GAMG:  Solving for p, Initial residual = 0.222951, Final residual = 0.00206392, No Iterations 3
time step continuity errors : sum local = 0.00658063, global = -0.000165286, cumulative = -0.00550672
DILUPBiCG:  Solving for nuTilda, Initial residual = 0.00849437, Final residual = 5.06244e-05, No Iterations 1
ExecutionTime = 3.33 s  ClockTime = 4 s

Time = 59

DILUPBiCG:  Solving for Ux, Initial residual = 0.00197482, Final residual = 2.02967e-05, No Iterations 1
DILUPBiCG:  Solving for Uy, Initial residual = 0.00482454, Final residual = 8.64611e-05, No Iterations 1
GAMG:  Solving for p, Initial residual = 0.217889, Final residual = 0.00111704, No Iterations 4
time step continuity errors : sum local = 0.00351415, global = -1.15288e-05, cumulative = -0.00551825
DILUPBiCG:  Solving for nuTilda, Initial residual = 0.00832786, Final residual = 4.99171e-05, No Iterations 1
ExecutionTime = 3.38 s  ClockTime = 4 s

Time = 60

DILUPBiCG:  Solving for Ux, Initial residual = 0.00195516, Final residual = 2.03084e-05, No Iterations 1
DILUPBiCG:  Solving for Uy, Initial residual = 0.00483285, Final residual = 0.000101943, No Iterations 1
GAMG:  Solving for p, Initial residual = 0.215037, Final residual = 0.000995902, No Iterations 4
time step continuity errors : sum local = 0.00309817, global = 6.09012e-05, cumulative = -0.00545735
DILUPBiCG:  Solving for nuTilda, Initial residual = 0.0081707, Final residual = 4.91593e-05, No Iterations 1
ExecutionTime = 3.43 s  ClockTime = 4 s

Time = 61

DILUPBiCG:  Solving for Ux, Initial residual = 0.00194671, Final residual = 2.0607e-05, No Iterations 1
DILUPBiCG:  Solving for Uy, Initial residual = 0.00490385, Final residual = 0.000123717, No Iterations 1
GAMG:  Solving for p, Initial residual = 0.21686, Final residual = 0.000963543, No Iterations 4
time step continuity errors : sum local = 0.00298641, global = 9.62112e-05, cumulative = -0.00536114
DILUPBiCG:  Solving for nuTilda, Initial residual = 0.00801773, Final residual = 4.83553e-05, No Iterations 1
ExecutionTime = 3.48 s  ClockTime = 4 s

Time = 62

DILUPBiCG:  Solving for Ux, Initial residual = 0.00194999, Final residual = 2.12029e-05, No Iterations 1
DILUPBiCG:  Solving for Uy, Initial residual = 0.00500823, Final residual = 0.000156326, No Iterations 1
GAMG:  Solving for p, Initial residual = 0.229983, Final residual = 0.0019845, No Iterations 3
time step continuity errors : sum local = 0.00613046, global = 0.000178778, cumulative = -0.00518236
DILUPBiCG:  Solving for nuTilda, Initial residual = 0.00787166, Final residual = 4.75291e-05, No Iterations 1
ExecutionTime = 3.52 s  ClockTime = 4 s

Time = 63

DILUPBiCG:  Solving for Ux, Initial residual = 0.00194997, Final residual = 2.25914e-05, No Iterations 1
DILUPBiCG:  Solving for Uy, Initial residual = 0.00507819, Final residual = 0.000191506, No Iterations 1
GAMG:  Solving for p, Initial residual = 0.227293, Final residual = 0.00166077, No Iterations 3
time step continuity errors : sum local = 0.00510488, global = 0.000154271, cumulative = -0.00502809
DILUPBiCG:  Solving for nuTilda, Initial residual = 0.00773302, Final residual = 4.67976e-05, No Iterations 1
ExecutionTime = 3.57 s  ClockTime = 4 s

Time = 64

DILUPBiCG:  Solving for Ux, Initial residual = 0.00193771, Final residual = 2.57224e-05, No Iterations 1
DILUPBiCG:  Solving for Uy, Initial residual = 0.00509417, Final residual = 0.000222164, No Iterations 1
GAMG:  Solving for p, Initial residual = 0.21933, Final residual = 0.00124254, No Iterations 3
time step continuity errors : sum local = 0.00381901, global = 0.00023351, cumulative = -0.00479458
DILUPBiCG:  Solving for nuTilda, Initial residual = 0.00759653, Final residual = 4.60721e-05, No Iterations 1
ExecutionTime = 3.61 s  ClockTime = 4 s

Time = 65

DILUPBiCG:  Solving for Ux, Initial residual = 0.00190221, Final residual = 2.89843e-05, No Iterations 1
DILUPBiCG:  Solving for Uy, Initial residual = 0.00505979, Final residual = 0.000231185, No Iterations 1
GAMG:  Solving for p, Initial residual = 0.218153, Final residual = 0.00190139, No Iterations 3
time step continuity errors : sum local = 0.00587831, global = 0.000217978, cumulative = -0.0045766
DILUPBiCG:  Solving for nuTilda, Initial residual = 0.00747262, Final residual = 4.54276e-05, No Iterations 1
ExecutionTime = 3.66 s  ClockTime = 4 s

Time = 66

DILUPBiCG:  Solving for Ux, Initial residual = 0.0018557, Final residual = 3.04907e-05, No Iterations 1
DILUPBiCG:  Solving for Uy, Initial residual = 0.00498231, Final residual = 0.000202235, No Iterations 1
GAMG:  Solving for p, Initial residual = 0.22334, Final residual = 0.00128078, No Iterations 4
time step continuity errors : sum local = 0.00401958, global = 0.000110028, cumulative = -0.00446657
DILUPBiCG:  Solving for nuTilda, Initial residual = 0.00735255, Final residual = 4.48264e-05, No Iterations 1
ExecutionTime = 3.71 s  ClockTime = 4 s

Time = 67

DILUPBiCG:  Solving for Ux, Initial residual = 0.00180099, Final residual = 3.19396e-05, No Iterations 1
DILUPBiCG:  Solving for Uy, Initial residual = 0.00483919, Final residual = 0.000167247, No Iterations 1
GAMG:  Solving for p, Initial residual = 0.241261, Final residual = 0.00218098, No Iterations 3
time step continuity errors : sum local = 0.00711265, global = 6.7e-05, cumulative = -0.00439957
DILUPBiCG:  Solving for nuTilda, Initial residual = 0.0072392, Final residual = 4.37996e-05, No Iterations 1
ExecutionTime = 3.75 s  ClockTime = 4 s

Time = 68

DILUPBiCG:  Solving for Ux, Initial residual = 0.00176355, Final residual = 1.80894e-05, No Iterations 1
DILUPBiCG:  Solving for Uy, Initial residual = 0.00476555, Final residual = 0.00013383, No Iterations 1
GAMG:  Solving for p, Initial residual = 0.263981, Final residual = 0.0017854, No Iterations 3
time step continuity errors : sum local = 0.00587582, global = 5.92328e-05, cumulative = -0.00434034
DILUPBiCG:  Solving for nuTilda, Initial residual = 0.00713397, Final residual = 4.31049e-05, No Iterations 1
ExecutionTime = 3.8 s  ClockTime = 5 s

Time = 69

DILUPBiCG:  Solving for Ux, Initial residual = 0.00173809, Final residual = 1.97707e-05, No Iterations 1
DILUPBiCG:  Solving for Uy, Initial residual = 0.00473675, Final residual = 0.000127783, No Iterations 1
GAMG:  Solving for p, Initial residual = 0.263277, Final residual = 0.00238505, No Iterations 3
time step continuity errors : sum local = 0.00772138, global = 5.98241e-05, cumulative = -0.00428052
DILUPBiCG:  Solving for nuTilda, Initial residual = 0.00703184, Final residual = 4.28526e-05, No Iterations 1
ExecutionTime = 3.85 s  ClockTime = 5 s

Time = 70

DILUPBiCG:  Solving for Ux, Initial residual = 0.00173673, Final residual = 1.87746e-05, No Iterations 1
DILUPBiCG:  Solving for Uy, Initial residual = 0.00480717, Final residual = 0.000146617, No Iterations 1
GAMG:  Solving for p, Initial residual = 0.253347, Final residual = 0.00122122, No Iterations 4
time step continuity errors : sum local = 0.00390007, global = 7.60742e-05, cumulative = -0.00420444
DILUPBiCG:  Solving for nuTilda, Initial residual = 0.00692683, Final residual = 4.26675e-05, No Iterations 1
ExecutionTime = 3.89 s  ClockTime = 5 s

Time = 71

DILUPBiCG:  Solving for Ux, Initial residual = 0.00176202, Final residual = 1.85415e-05, No Iterations 1
DILUPBiCG:  Solving for Uy, Initial residual = 0.00497852, Final residual = 0.00018729, No Iterations 1
GAMG:  Solving for p, Initial residual = 0.246723, Final residual = 0.00137627, No Iterations 4
time step continuity errors : sum local = 0.00433773, global = 6.02255e-05, cumulative = -0.00414422
DILUPBiCG:  Solving for nuTilda, Initial residual = 0.00682717, Final residual = 4.24322e-05, No Iterations 1
ExecutionTime = 3.94 s  ClockTime = 5 s

Time = 72

DILUPBiCG:  Solving for Ux, Initial residual = 0.00179536, Final residual = 1.92101e-05, No Iterations 1
DILUPBiCG:  Solving for Uy, Initial residual = 0.00510967, Final residual = 0.000262513, No Iterations 1
GAMG:  Solving for p, Initial residual = 0.239046, Final residual = 0.0013348, No Iterations 4
time step continuity errors : sum local = 0.00413944, global = 2.82343e-05, cumulative = -0.00411598
DILUPBiCG:  Solving for nuTilda, Initial residual = 0.00672909, Final residual = 4.21823e-05, No Iterations 1
ExecutionTime = 3.99 s  ClockTime = 5 s

Time = 73

DILUPBiCG:  Solving for Ux, Initial residual = 0.00181666, Final residual = 2.18769e-05, No Iterations 1
DILUPBiCG:  Solving for Uy, Initial residual = 0.00518843, Final residual = 0.000454182, No Iterations 1
GAMG:  Solving for p, Initial residual = 0.225514, Final residual = 0.00168618, No Iterations 3
time step continuity errors : sum local = 0.00510092, global = -2.90182e-06, cumulative = -0.00411888
DILUPBiCG:  Solving for nuTilda, Initial residual = 0.00663709, Final residual = 4.19701e-05, No Iterations 1
ExecutionTime = 4.04 s  ClockTime = 5 s

Time = 74

DILUPBiCG:  Solving for Ux, Initial residual = 0.00180352, Final residual = 2.64295e-05, No Iterations 1
DILUPBiCG:  Solving for Uy, Initial residual = 0.00517248, Final residual = 2.52082e-06, No Iterations 2
GAMG:  Solving for p, Initial residual = 0.206937, Final residual = 0.00178627, No Iterations 3
time step continuity errors : sum local = 0.00531188, global = -9.07428e-05, cumulative = -0.00420963
DILUPBiCG:  Solving for nuTilda, Initial residual = 0.00654851, Final residual = 4.16575e-05, No Iterations 1
ExecutionTime = 4.09 s  ClockTime = 5 s

Time = 75

DILUPBiCG:  Solving for Ux, Initial residual = 0.00175711, Final residual = 2.78005e-05, No Iterations 1
DILUPBiCG:  Solving for Uy, Initial residual = 0.00504997, Final residual = 2.37155e-06, No Iterations 2
GAMG:  Solving for p, Initial residual = 0.19102, Final residual = 0.00112784, No Iterations 5
time step continuity errors : sum local = 0.00335132, global = -3.20119e-05, cumulative = -0.00424164
DILUPBiCG:  Solving for nuTilda, Initial residual = 0.00646285, Final residual = 4.12437e-05, No Iterations 1
ExecutionTime = 4.14 s  ClockTime = 5 s

Time = 76

DILUPBiCG:  Solving for Ux, Initial residual = 0.00168764, Final residual = 2.62789e-05, No Iterations 1
DILUPBiCG:  Solving for Uy, Initial residual = 0.00483099, Final residual = 2.26462e-06, No Iterations 2
GAMG:  Solving for p, Initial residual = 0.191864, Final residual = 0.00117226, No Iterations 5
time step continuity errors : sum local = 0.00351782, global = 3.55245e-05, cumulative = -0.00420611
DILUPBiCG:  Solving for nuTilda, Initial residual = 0.00638228, Final residual = 4.07626e-05, No Iterations 1
ExecutionTime = 4.19 s  ClockTime = 5 s

Time = 77

DILUPBiCG:  Solving for Ux, Initial residual = 0.00161501, Final residual = 2.43498e-05, No Iterations 1
DILUPBiCG:  Solving for Uy, Initial residual = 0.00461893, Final residual = 0.000362608, No Iterations 1
GAMG:  Solving for p, Initial residual = 0.209436, Final residual = 0.00176867, No Iterations 4
time step continuity errors : sum local = 0.00536723, global = 2.7936e-05, cumulative = -0.00417818
DILUPBiCG:  Solving for nuTilda, Initial residual = 0.00630268, Final residual = 4.01141e-05, No Iterations 1
ExecutionTime = 4.24 s  ClockTime = 5 s

Time = 78

DILUPBiCG:  Solving for Ux, Initial residual = 0.00156466, Final residual = 2.25929e-05, No Iterations 1
DILUPBiCG:  Solving for Uy, Initial residual = 0.00449853, Final residual = 0.000234182, No Iterations 1
GAMG:  Solving for p, Initial residual = 0.240811, Final residual = 0.00193653, No Iterations 3
time step continuity errors : sum local = 0.00601032, global = 7.09023e-05, cumulative = -0.00410728
DILUPBiCG:  Solving for nuTilda, Initial residual = 0.00622972, Final residual = 3.91981e-05, No Iterations 1
ExecutionTime = 4.29 s  ClockTime = 5 s

Time = 79

DILUPBiCG:  Solving for Ux, Initial residual = 0.00154481, Final residual = 1.63717e-05, No Iterations 1
DILUPBiCG:  Solving for Uy, Initial residual = 0.00448668, Final residual = 0.000145421, No Iterations 1
GAMG:  Solving for p, Initial residual = 0.276307, Final residual = 0.00229133, No Iterations 3
time step continuity errors : sum local = 0.00727702, global = 7.26018e-05, cumulative = -0.00403467
DILUPBiCG:  Solving for nuTilda, Initial residual = 0.0061595, Final residual = 3.83935e-05, No Iterations 1
ExecutionTime = 4.33 s  ClockTime = 5 s

Time = 80

DILUPBiCG:  Solving for Ux, Initial residual = 0.00154767, Final residual = 2.04948e-05, No Iterations 1
DILUPBiCG:  Solving for Uy, Initial residual = 0.0045715, Final residual = 0.000126965, No Iterations 1
GAMG:  Solving for p, Initial residual = 0.268525, Final residual = 0.00162733, No Iterations 4
time step continuity errors : sum local = 0.00511154, global = 0.000175576, cumulative = -0.0038591
DILUPBiCG:  Solving for nuTilda, Initial residual = 0.00609283, Final residual = 3.80668e-05, No Iterations 1
ExecutionTime = 4.38 s  ClockTime = 5 s

Time = 81

DILUPBiCG:  Solving for Ux, Initial residual = 0.00158344, Final residual = 2.06187e-05, No Iterations 1
DILUPBiCG:  Solving for Uy, Initial residual = 0.00480683, Final residual = 0.00014688, No Iterations 1
GAMG:  Solving for p, Initial residual = 0.241107, Final residual = 0.00199271, No Iterations 4
time step continuity errors : sum local = 0.00623547, global = 0.000168076, cumulative = -0.00369102
DILUPBiCG:  Solving for nuTilda, Initial residual = 0.00602411, Final residual = 3.79507e-05, No Iterations 1
ExecutionTime = 4.43 s  ClockTime = 5 s

Time = 82

DILUPBiCG:  Solving for Ux, Initial residual = 0.00164, Final residual = 1.88113e-05, No Iterations 1
DILUPBiCG:  Solving for Uy, Initial residual = 0.00509867, Final residual = 0.000201226, No Iterations 1
GAMG:  Solving for p, Initial residual = 0.227976, Final residual = 0.0017894, No Iterations 4
time step continuity errors : sum local = 0.00561891, global = 8.08139e-05, cumulative = -0.00361021
DILUPBiCG:  Solving for nuTilda, Initial residual = 0.00595473, Final residual = 3.79476e-05, No Iterations 1
ExecutionTime = 4.48 s  ClockTime = 5 s

Time = 83

DILUPBiCG:  Solving for Ux, Initial residual = 0.00167978, Final residual = 1.83155e-05, No Iterations 1
DILUPBiCG:  Solving for Uy, Initial residual = 0.00526696, Final residual = 0.000350921, No Iterations 1
GAMG:  Solving for p, Initial residual = 0.214989, Final residual = 0.00176628, No Iterations 3
time step continuity errors : sum local = 0.00554971, global = 0.000147707, cumulative = -0.0034625
DILUPBiCG:  Solving for nuTilda, Initial residual = 0.00588877, Final residual = 3.79486e-05, No Iterations 1
ExecutionTime = 4.53 s  ClockTime = 5 s

Time = 84

DILUPBiCG:  Solving for Ux, Initial residual = 0.00166889, Final residual = 2.21527e-05, No Iterations 1
DILUPBiCG:  Solving for Uy, Initial residual = 0.00519473, Final residual = 2.62861e-06, No Iterations 2
GAMG:  Solving for p, Initial residual = 0.202047, Final residual = 0.00141987, No Iterations 4
time step continuity errors : sum local = 0.00443294, global = 5.1247e-05, cumulative = -0.00341125
DILUPBiCG:  Solving for nuTilda, Initial residual = 0.00582314, Final residual = 3.78688e-05, No Iterations 1
ExecutionTime = 4.58 s  ClockTime = 5 s

Time = 85

DILUPBiCG:  Solving for Ux, Initial residual = 0.00161542, Final residual = 2.70501e-05, No Iterations 1
DILUPBiCG:  Solving for Uy, Initial residual = 0.00498183, Final residual = 2.42351e-06, No Iterations 2
GAMG:  Solving for p, Initial residual = 0.196752, Final residual = 0.0011843, No Iterations 5
time step continuity errors : sum local = 0.00370551, global = 3.69111e-05, cumulative = -0.00337434
DILUPBiCG:  Solving for nuTilda, Initial residual = 0.00576211, Final residual = 3.772e-05, No Iterations 1
ExecutionTime = 4.64 s  ClockTime = 5 s

Time = 86

DILUPBiCG:  Solving for Ux, Initial residual = 0.00153262, Final residual = 2.55382e-05, No Iterations 1
DILUPBiCG:  Solving for Uy, Initial residual = 0.00470621, Final residual = 2.21892e-06, No Iterations 2
GAMG:  Solving for p, Initial residual = 0.211097, Final residual = 0.00124805, No Iterations 5
time step continuity errors : sum local = 0.00396884, global = 6.63522e-05, cumulative = -0.00330799
DILUPBiCG:  Solving for nuTilda, Initial residual = 0.00570204, Final residual = 3.73894e-05, No Iterations 1
ExecutionTime = 4.69 s  ClockTime = 5 s

Time = 87

DILUPBiCG:  Solving for Ux, Initial residual = 0.00144881, Final residual = 1.91053e-05, No Iterations 1
DILUPBiCG:  Solving for Uy, Initial residual = 0.00446318, Final residual = 2.02917e-06, No Iterations 2
GAMG:  Solving for p, Initial residual = 0.270886, Final residual = 0.00190219, No Iterations 4
time step continuity errors : sum local = 0.00634817, global = 2.55863e-05, cumulative = -0.0032824
DILUPBiCG:  Solving for nuTilda, Initial residual = 0.00564818, Final residual = 3.66237e-05, No Iterations 1
ExecutionTime = 4.74 s  ClockTime = 5 s

Time = 88

DILUPBiCG:  Solving for Ux, Initial residual = 0.00140396, Final residual = 1.55476e-05, No Iterations 1
DILUPBiCG:  Solving for Uy, Initial residual = 0.00435809, Final residual = 0.000113195, No Iterations 1
GAMG:  Solving for p, Initial residual = 0.298692, Final residual = 0.00262184, No Iterations 3
time step continuity errors : sum local = 0.00867175, global = -0.000116163, cumulative = -0.00339857
DILUPBiCG:  Solving for nuTilda, Initial residual = 0.00559539, Final residual = 3.62414e-05, No Iterations 1
ExecutionTime = 4.78 s  ClockTime = 5 s

Time = 89

DILUPBiCG:  Solving for Ux, Initial residual = 0.00140967, Final residual = 1.64243e-05, No Iterations 1
DILUPBiCG:  Solving for Uy, Initial residual = 0.00446296, Final residual = 9.95689e-05, No Iterations 1
GAMG:  Solving for p, Initial residual = 0.268383, Final residual = 0.00192943, No Iterations 4
time step continuity errors : sum local = 0.00627681, global = 7.14548e-05, cumulative = -0.00332711
DILUPBiCG:  Solving for nuTilda, Initial residual = 0.00554362, Final residual = 3.60701e-05, No Iterations 1
ExecutionTime = 4.83 s  ClockTime = 6 s

Time = 90

DILUPBiCG:  Solving for Ux, Initial residual = 0.00145959, Final residual = 1.66336e-05, No Iterations 1
DILUPBiCG:  Solving for Uy, Initial residual = 0.00474312, Final residual = 0.000117715, No Iterations 1
GAMG:  Solving for p, Initial residual = 0.230832, Final residual = 0.00221343, No Iterations 4
time step continuity errors : sum local = 0.0070911, global = 0.000141134, cumulative = -0.00318598
DILUPBiCG:  Solving for nuTilda, Initial residual = 0.00548762, Final residual = 3.59337e-05, No Iterations 1
ExecutionTime = 4.88 s  ClockTime = 6 s

Time = 91

DILUPBiCG:  Solving for Ux, Initial residual = 0.00152918, Final residual = 1.67094e-05, No Iterations 1
DILUPBiCG:  Solving for Uy, Initial residual = 0.00503537, Final residual = 0.000151417, No Iterations 1
GAMG:  Solving for p, Initial residual = 0.213819, Final residual = 0.00155566, No Iterations 4
time step continuity errors : sum local = 0.00497135, global = 0.000121597, cumulative = -0.00306438
DILUPBiCG:  Solving for nuTilda, Initial residual = 0.00543314, Final residual = 3.58987e-05, No Iterations 1
ExecutionTime = 4.93 s  ClockTime = 6 s

Time = 92

DILUPBiCG:  Solving for Ux, Initial residual = 0.00156601, Final residual = 1.88499e-05, No Iterations 1
DILUPBiCG:  Solving for Uy, Initial residual = 0.00514192, Final residual = 0.000211439, No Iterations 1
GAMG:  Solving for p, Initial residual = 0.208297, Final residual = 0.00150619, No Iterations 3
time step continuity errors : sum local = 0.00486481, global = 0.000112494, cumulative = -0.00295189
DILUPBiCG:  Solving for nuTilda, Initial residual = 0.00538024, Final residual = 3.57863e-05, No Iterations 1
ExecutionTime = 4.98 s  ClockTime = 6 s

Time = 93

DILUPBiCG:  Solving for Ux, Initial residual = 0.0015501, Final residual = 2.48848e-05, No Iterations 1
DILUPBiCG:  Solving for Uy, Initial residual = 0.00500199, Final residual = 0.000310151, No Iterations 1
GAMG:  Solving for p, Initial residual = 0.212791, Final residual = 0.00160639, No Iterations 4
time step continuity errors : sum local = 0.00522372, global = 0.00012725, cumulative = -0.00282464
DILUPBiCG:  Solving for nuTilda, Initial residual = 0.00532976, Final residual = 3.55335e-05, No Iterations 1
ExecutionTime = 5.03 s  ClockTime = 6 s

Time = 94

DILUPBiCG:  Solving for Ux, Initial residual = 0.00149247, Final residual = 2.97133e-05, No Iterations 1
DILUPBiCG:  Solving for Uy, Initial residual = 0.00471566, Final residual = 2.25176e-06, No Iterations 2
GAMG:  Solving for p, Initial residual = 0.22976, Final residual = 0.00203729, No Iterations 4
time step continuity errors : sum local = 0.00686667, global = 9.27208e-05, cumulative = -0.00273192
DILUPBiCG:  Solving for nuTilda, Initial residual = 0.00528135, Final residual = 3.5125e-05, No Iterations 1
ExecutionTime = 5.08 s  ClockTime = 6 s

Time = 95

DILUPBiCG:  Solving for Ux, Initial residual = 0.00141938, Final residual = 2.25289e-05, No Iterations 1
DILUPBiCG:  Solving for Uy, Initial residual = 0.00446673, Final residual = 2.05819e-06, No Iterations 2
GAMG:  Solving for p, Initial residual = 0.294969, Final residual = 0.00185571, No Iterations 4
time step continuity errors : sum local = 0.00684958, global = 9.27762e-05, cumulative = -0.00263914
DILUPBiCG:  Solving for nuTilda, Initial residual = 0.00523654, Final residual = 3.45233e-05, No Iterations 1
ExecutionTime = 5.13 s  ClockTime = 6 s

Time = 96

DILUPBiCG:  Solving for Ux, Initial residual = 0.00135873, Final residual = 1.45746e-05, No Iterations 1
DILUPBiCG:  Solving for Uy, Initial residual = 0.00432116, Final residual = 9.59603e-05, No Iterations 1
GAMG:  Solving for p, Initial residual = 0.29665, Final residual = 0.00217882, No Iterations 3
time step continuity errors : sum local = 0.0078983, global = 7.54623e-05, cumulative = -0.00256368
DILUPBiCG:  Solving for nuTilda, Initial residual = 0.00519339, Final residual = 3.41929e-05, No Iterations 1
ExecutionTime = 5.18 s  ClockTime = 6 s

Time = 97

DILUPBiCG:  Solving for Ux, Initial residual = 0.00135607, Final residual = 1.46677e-05, No Iterations 1
DILUPBiCG:  Solving for Uy, Initial residual = 0.00447025, Final residual = 9.25806e-05, No Iterations 1
GAMG:  Solving for p, Initial residual = 0.254602, Final residual = 0.00151556, No Iterations 4
time step continuity errors : sum local = 0.00542544, global = 0.000124094, cumulative = -0.00243958
DILUPBiCG:  Solving for nuTilda, Initial residual = 0.00515075, Final residual = 3.3905e-05, No Iterations 1
ExecutionTime = 5.23 s  ClockTime = 6 s

Time = 98

DILUPBiCG:  Solving for Ux, Initial residual = 0.00139601, Final residual = 1.53986e-05, No Iterations 1
DILUPBiCG:  Solving for Uy, Initial residual = 0.0047607, Final residual = 0.000110016, No Iterations 1
GAMG:  Solving for p, Initial residual = 0.218318, Final residual = 0.00181061, No Iterations 4
time step continuity errors : sum local = 0.00636379, global = 0.000158898, cumulative = -0.00228069
DILUPBiCG:  Solving for nuTilda, Initial residual = 0.00510546, Final residual = 3.36101e-05, No Iterations 1
ExecutionTime = 5.28 s  ClockTime = 6 s

Time = 99

DILUPBiCG:  Solving for Ux, Initial residual = 0.00144864, Final residual = 1.68058e-05, No Iterations 1
DILUPBiCG:  Solving for Uy, Initial residual = 0.00500029, Final residual = 0.000132586, No Iterations 1
GAMG:  Solving for p, Initial residual = 0.198755, Final residual = 0.00123861, No Iterations 4
time step continuity errors : sum local = 0.00435408, global = 0.000142539, cumulative = -0.00213815
DILUPBiCG:  Solving for nuTilda, Initial residual = 0.0050613, Final residual = 3.33844e-05, No Iterations 1
ExecutionTime = 5.33 s  ClockTime = 6 s

Time = 100

DILUPBiCG:  Solving for Ux, Initial residual = 0.00147009, Final residual = 1.97183e-05, No Iterations 1
DILUPBiCG:  Solving for Uy, Initial residual = 0.0050248, Final residual = 0.000167757, No Iterations 1
GAMG:  Solving for p, Initial residual = 0.199331, Final residual = 0.00146521, No Iterations 3
time step continuity errors : sum local = 0.00520799, global = 8.82435e-06, cumulative = -0.00212932
DILUPBiCG:  Solving for nuTilda, Initial residual = 0.00501665, Final residual = 3.30809e-05, No Iterations 1
ExecutionTime = 5.51 s  ClockTime = 6 s

End

/*---------------------------------------------------------------------------*\
| =========                 |                                                 |
| \\      /  F ield         | OpenFOAM: The Open Source CFD Toolbox           |
|  \\    /   O peration     | Version:  5.x                                   |
|   \\  /    A nd           | Web:      www.OpenFOAM.org                      |
|    \\/     M anipulation  |                                                 |
\*---------------------------------------------------------------------------*/
Build  : 5.x-7f7d351b741b
Exec   : simpleFoam
Date   : Sep 20 2021
Time   : 13:00:35
Host   : "jupiter"
PID    : 28249
I/O    : uncollated
Case   : /lus/scratch/mellis/cray_labs/smartsim-openFOAM/data_generation/Data_Generation_Model/Check
nProcs : 1
sigFpe : Floating point exception trapping - not supported on this platform
fileModificationChecking : Monitoring run-time modified files using timeStampMaster (fileModificationSkew 10)
allowSystemOperations : Allowing user-supplied system call operations

// * * * * * * * * * * * * * * * * * * * * * * * * * * * * * * * * * * * * * //
Create time

Create mesh for time = 0


SIMPLE: convergence criteria
    field p	 tolerance 0.001
    field U	 tolerance 1e-06

Reading field p

Reading field U

Reading/calculating face flux field phi

Selecting incompressible transport model Newtonian
Selecting turbulence model type RAS
Selecting RAS turbulence model SA_Detailed
Selecting patchDistMethod meshWave
RAS
{
    RASModel        SA_Detailed;
    turbulence      on;
    printCoeffs     on;
    sigmaNut        0.66666;
    kappa           0.41;
    Cb1             0.1355;
    Cb2             0.622;
    Cw2             0.3;
    Cw3             2;
    Cv1             7.1;
    Cs              0.3;
}

No MRF models present

No finite volume options present


Starting time loop

Time = 1

DILUPBiCG:  Solving for Ux, Initial residual = 0.0241698, Final residual = 0.000123369, No Iterations 1
DILUPBiCG:  Solving for Uy, Initial residual = 0.00672522, Final residual = 7.48404e-05, No Iterations 1
GAMG:  Solving for p, Initial residual = 0.492034, Final residual = 0.00442336, No Iterations 7
time step continuity errors : sum local = 0.00929624, global = 0.000536895, cumulative = 0.000536895
DILUPBiCG:  Solving for nuTilda, Initial residual = 1, Final residual = 0.000315556, No Iterations 1
ExecutionTime = 0.29 s  ClockTime = 0 s

Time = 2

DILUPBiCG:  Solving for Ux, Initial residual = 0.0157894, Final residual = 8.55775e-05, No Iterations 1
DILUPBiCG:  Solving for Uy, Initial residual = 0.00534332, Final residual = 7.28779e-05, No Iterations 1
GAMG:  Solving for p, Initial residual = 0.521718, Final residual = 0.00519853, No Iterations 7
time step continuity errors : sum local = 0.0108473, global = -0.00124601, cumulative = -0.000709114
DILUPBiCG:  Solving for nuTilda, Initial residual = 0.223851, Final residual = 0.000122183, No Iterations 1
ExecutionTime = 0.36 s  ClockTime = 0 s

Time = 3

DILUPBiCG:  Solving for Ux, Initial residual = 0.0110025, Final residual = 6.05385e-05, No Iterations 1
DILUPBiCG:  Solving for Uy, Initial residual = 0.00353364, Final residual = 0.000188753, No Iterations 1
GAMG:  Solving for p, Initial residual = 0.476894, Final residual = 0.00363441, No Iterations 7
time step continuity errors : sum local = 0.00716098, global = -0.000154755, cumulative = -0.000863869
DILUPBiCG:  Solving for nuTilda, Initial residual = 0.0979773, Final residual = 8.49935e-05, No Iterations 1
ExecutionTime = 0.42 s  ClockTime = 0 s

Time = 4

DILUPBiCG:  Solving for Ux, Initial residual = 0.00854608, Final residual = 5.12686e-05, No Iterations 1
DILUPBiCG:  Solving for Uy, Initial residual = 0.00271448, Final residual = 3.20972e-05, No Iterations 1
GAMG:  Solving for p, Initial residual = 0.344508, Final residual = 0.00176269, No Iterations 7
time step continuity errors : sum local = 0.00353716, global = 0.000180582, cumulative = -0.000683286
DILUPBiCG:  Solving for nuTilda, Initial residual = 0.0420524, Final residual = 8.72681e-05, No Iterations 1
ExecutionTime = 0.48 s  ClockTime = 0 s

Time = 5

DILUPBiCG:  Solving for Ux, Initial residual = 0.00716655, Final residual = 4.782e-05, No Iterations 1
DILUPBiCG:  Solving for Uy, Initial residual = 0.00344477, Final residual = 4.26143e-05, No Iterations 1
GAMG:  Solving for p, Initial residual = 0.23588, Final residual = 0.00212556, No Iterations 5
time step continuity errors : sum local = 0.00440286, global = -0.000465666, cumulative = -0.00114895
DILUPBiCG:  Solving for nuTilda, Initial residual = 0.0262173, Final residual = 7.92497e-05, No Iterations 1
ExecutionTime = 0.54 s  ClockTime = 0 s

Time = 6

DILUPBiCG:  Solving for Ux, Initial residual = 0.00606271, Final residual = 4.3677e-05, No Iterations 1
DILUPBiCG:  Solving for Uy, Initial residual = 0.00359214, Final residual = 4.39679e-05, No Iterations 1
GAMG:  Solving for p, Initial residual = 0.264734, Final residual = 0.00192864, No Iterations 8
time step continuity errors : sum local = 0.003758, global = 0.000625671, cumulative = -0.000523281
DILUPBiCG:  Solving for nuTilda, Initial residual = 0.0218242, Final residual = 7.42118e-05, No Iterations 1
ExecutionTime = 0.61 s  ClockTime = 0 s

Time = 7

DILUPBiCG:  Solving for Ux, Initial residual = 0.00501798, Final residual = 3.77338e-05, No Iterations 1
DILUPBiCG:  Solving for Uy, Initial residual = 0.00311808, Final residual = 3.77151e-05, No Iterations 1
GAMG:  Solving for p, Initial residual = 0.31816, Final residual = 0.0020865, No Iterations 8
time step continuity errors : sum local = 0.00385797, global = 0.000351874, cumulative = -0.000171407
DILUPBiCG:  Solving for nuTilda, Initial residual = 0.0197674, Final residual = 6.76887e-05, No Iterations 1
ExecutionTime = 0.67 s  ClockTime = 0 s

Time = 8

DILUPBiCG:  Solving for Ux, Initial residual = 0.00409253, Final residual = 3.09348e-05, No Iterations 1
DILUPBiCG:  Solving for Uy, Initial residual = 0.00237501, Final residual = 2.76555e-05, No Iterations 1
GAMG:  Solving for p, Initial residual = 0.285929, Final residual = 0.0021358, No Iterations 8
time step continuity errors : sum local = 0.00427235, global = -0.000367972, cumulative = -0.000539378
DILUPBiCG:  Solving for nuTilda, Initial residual = 0.0191408, Final residual = 6.28552e-05, No Iterations 1
ExecutionTime = 0.74 s  ClockTime = 0 s

Time = 9

DILUPBiCG:  Solving for Ux, Initial residual = 0.00338966, Final residual = 2.58264e-05, No Iterations 1
DILUPBiCG:  Solving for Uy, Initial residual = 0.00199222, Final residual = 2.61174e-05, No Iterations 1
GAMG:  Solving for p, Initial residual = 0.235535, Final residual = 0.00174192, No Iterations 7
time step continuity errors : sum local = 0.00369519, global = 0.000207678, cumulative = -0.0003317
DILUPBiCG:  Solving for nuTilda, Initial residual = 0.0187284, Final residual = 5.98121e-05, No Iterations 1
ExecutionTime = 0.8 s  ClockTime = 0 s

Time = 10

DILUPBiCG:  Solving for Ux, Initial residual = 0.00299979, Final residual = 0.000110254, No Iterations 1
DILUPBiCG:  Solving for Uy, Initial residual = 0.0022855, Final residual = 6.22183e-05, No Iterations 1
GAMG:  Solving for p, Initial residual = 0.186298, Final residual = 0.000981455, No Iterations 7
time step continuity errors : sum local = 0.00213694, global = -7.23028e-05, cumulative = -0.000404003
DILUPBiCG:  Solving for nuTilda, Initial residual = 0.0185789, Final residual = 5.75293e-05, No Iterations 1
ExecutionTime = 0.86 s  ClockTime = 0 s

Time = 11

DILUPBiCG:  Solving for Ux, Initial residual = 0.00279065, Final residual = 4.52389e-05, No Iterations 1
DILUPBiCG:  Solving for Uy, Initial residual = 0.00256652, Final residual = 0.000144791, No Iterations 1
GAMG:  Solving for p, Initial residual = 0.158436, Final residual = 0.00126946, No Iterations 4
time step continuity errors : sum local = 0.00278086, global = -5.01205e-05, cumulative = -0.000454123
DILUPBiCG:  Solving for nuTilda, Initial residual = 0.0184231, Final residual = 5.60042e-05, No Iterations 1
ExecutionTime = 0.91 s  ClockTime = 1 s

Time = 12

DILUPBiCG:  Solving for Ux, Initial residual = 0.00262681, Final residual = 3.301e-05, No Iterations 1
DILUPBiCG:  Solving for Uy, Initial residual = 0.00262807, Final residual = 0.000179829, No Iterations 1
GAMG:  Solving for p, Initial residual = 0.166567, Final residual = 0.00110837, No Iterations 6
time step continuity errors : sum local = 0.00244243, global = -0.000297935, cumulative = -0.000752058
DILUPBiCG:  Solving for nuTilda, Initial residual = 0.0185929, Final residual = 5.51171e-05, No Iterations 1
ExecutionTime = 0.97 s  ClockTime = 1 s

Time = 13

DILUPBiCG:  Solving for Ux, Initial residual = 0.00252333, Final residual = 2.98359e-05, No Iterations 1
DILUPBiCG:  Solving for Uy, Initial residual = 0.00256408, Final residual = 0.000122457, No Iterations 1
GAMG:  Solving for p, Initial residual = 0.170539, Final residual = 0.0014092, No Iterations 6
time step continuity errors : sum local = 0.00300801, global = -0.000284697, cumulative = -0.00103675
DILUPBiCG:  Solving for nuTilda, Initial residual = 0.0183707, Final residual = 5.4806e-05, No Iterations 1
ExecutionTime = 1.02 s  ClockTime = 1 s

Time = 14

DILUPBiCG:  Solving for Ux, Initial residual = 0.00245364, Final residual = 2.85696e-05, No Iterations 1
DILUPBiCG:  Solving for Uy, Initial residual = 0.00244841, Final residual = 7.66267e-05, No Iterations 1
GAMG:  Solving for p, Initial residual = 0.170005, Final residual = 0.00140172, No Iterations 6
time step continuity errors : sum local = 0.0029399, global = -0.000197094, cumulative = -0.00123385
DILUPBiCG:  Solving for nuTilda, Initial residual = 0.0185924, Final residual = 5.48822e-05, No Iterations 1
ExecutionTime = 1.08 s  ClockTime = 1 s

Time = 15

DILUPBiCG:  Solving for Ux, Initial residual = 0.00240244, Final residual = 2.81409e-05, No Iterations 1
DILUPBiCG:  Solving for Uy, Initial residual = 0.0023691, Final residual = 5.79258e-05, No Iterations 1
GAMG:  Solving for p, Initial residual = 0.168355, Final residual = 0.00134537, No Iterations 6
time step continuity errors : sum local = 0.00278649, global = 0.000157357, cumulative = -0.00107649
DILUPBiCG:  Solving for nuTilda, Initial residual = 0.0183796, Final residual = 5.51765e-05, No Iterations 1
ExecutionTime = 1.14 s  ClockTime = 1 s

Time = 16

DILUPBiCG:  Solving for Ux, Initial residual = 0.00235439, Final residual = 2.81512e-05, No Iterations 1
DILUPBiCG:  Solving for Uy, Initial residual = 0.00238687, Final residual = 5.27828e-05, No Iterations 1
GAMG:  Solving for p, Initial residual = 0.169265, Final residual = 0.00164231, No Iterations 4
time step continuity errors : sum local = 0.00340049, global = -6.93147e-05, cumulative = -0.00114581
DILUPBiCG:  Solving for nuTilda, Initial residual = 0.0186109, Final residual = 5.58194e-05, No Iterations 1
ExecutionTime = 1.2 s  ClockTime = 1 s

Time = 17

DILUPBiCG:  Solving for Ux, Initial residual = 0.00229996, Final residual = 2.83597e-05, No Iterations 1
DILUPBiCG:  Solving for Uy, Initial residual = 0.00248473, Final residual = 5.57763e-05, No Iterations 1
GAMG:  Solving for p, Initial residual = 0.193172, Final residual = 0.00173042, No Iterations 4
time step continuity errors : sum local = 0.00366984, global = 2.50124e-05, cumulative = -0.00112079
DILUPBiCG:  Solving for nuTilda, Initial residual = 0.0185545, Final residual = 5.64189e-05, No Iterations 1
ExecutionTime = 1.24 s  ClockTime = 1 s

Time = 18

DILUPBiCG:  Solving for Ux, Initial residual = 0.00226234, Final residual = 2.92009e-05, No Iterations 1
DILUPBiCG:  Solving for Uy, Initial residual = 0.00265183, Final residual = 6.93585e-05, No Iterations 1
GAMG:  Solving for p, Initial residual = 0.230783, Final residual = 0.00221335, No Iterations 4
time step continuity errors : sum local = 0.00484997, global = 8.58204e-05, cumulative = -0.00103497
DILUPBiCG:  Solving for nuTilda, Initial residual = 0.0187276, Final residual = 5.75381e-05, No Iterations 1
ExecutionTime = 1.31 s  ClockTime = 1 s

Time = 19

DILUPBiCG:  Solving for Ux, Initial residual = 0.00224504, Final residual = 3.08426e-05, No Iterations 1
DILUPBiCG:  Solving for Uy, Initial residual = 0.00289509, Final residual = 0.000117344, No Iterations 1
GAMG:  Solving for p, Initial residual = 0.262108, Final residual = 0.00151156, No Iterations 5
time step continuity errors : sum local = 0.00347269, global = 3.05104e-05, cumulative = -0.00100446
DILUPBiCG:  Solving for nuTilda, Initial residual = 0.0186096, Final residual = 5.85541e-05, No Iterations 1
ExecutionTime = 1.36 s  ClockTime = 1 s

Time = 20

DILUPBiCG:  Solving for Ux, Initial residual = 0.0022554, Final residual = 3.35066e-05, No Iterations 1
DILUPBiCG:  Solving for Uy, Initial residual = 0.00322911, Final residual = 1.27236e-06, No Iterations 2
GAMG:  Solving for p, Initial residual = 0.267615, Final residual = 0.00155429, No Iterations 5
time step continuity errors : sum local = 0.00369304, global = 9.84786e-06, cumulative = -0.000994615
DILUPBiCG:  Solving for nuTilda, Initial residual = 0.0187836, Final residual = 5.98841e-05, No Iterations 1
ExecutionTime = 1.42 s  ClockTime = 1 s

Time = 21

DILUPBiCG:  Solving for Ux, Initial residual = 0.00228077, Final residual = 3.72094e-05, No Iterations 1
DILUPBiCG:  Solving for Uy, Initial residual = 0.00358681, Final residual = 8.74133e-05, No Iterations 1
GAMG:  Solving for p, Initial residual = 0.268258, Final residual = 0.00254604, No Iterations 4
time step continuity errors : sum local = 0.00613159, global = -6.66064e-06, cumulative = -0.00100128
DILUPBiCG:  Solving for nuTilda, Initial residual = 0.0188564, Final residual = 6.10907e-05, No Iterations 1
ExecutionTime = 1.47 s  ClockTime = 1 s

Time = 22

DILUPBiCG:  Solving for Ux, Initial residual = 0.00229008, Final residual = 3.97535e-05, No Iterations 1
DILUPBiCG:  Solving for Uy, Initial residual = 0.00383849, Final residual = 7.30722e-05, No Iterations 1
GAMG:  Solving for p, Initial residual = 0.265299, Final residual = 0.00223927, No Iterations 4
time step continuity errors : sum local = 0.00546403, global = -5.00747e-05, cumulative = -0.00105135
DILUPBiCG:  Solving for nuTilda, Initial residual = 0.019022, Final residual = 6.25152e-05, No Iterations 1
ExecutionTime = 1.52 s  ClockTime = 1 s

Time = 23

DILUPBiCG:  Solving for Ux, Initial residual = 0.00226544, Final residual = 3.9372e-05, No Iterations 1
DILUPBiCG:  Solving for Uy, Initial residual = 0.00388594, Final residual = 9.88193e-05, No Iterations 1
GAMG:  Solving for p, Initial residual = 0.252189, Final residual = 0.00243406, No Iterations 4
time step continuity errors : sum local = 0.00601769, global = -0.00017937, cumulative = -0.00123072
DILUPBiCG:  Solving for nuTilda, Initial residual = 0.0190275, Final residual = 6.38042e-05, No Iterations 1
ExecutionTime = 1.57 s  ClockTime = 1 s

Time = 24

DILUPBiCG:  Solving for Ux, Initial residual = 0.00221133, Final residual = 3.73593e-05, No Iterations 1
DILUPBiCG:  Solving for Uy, Initial residual = 0.00376389, Final residual = 1.24835e-06, No Iterations 2
GAMG:  Solving for p, Initial residual = 0.22747, Final residual = 0.00134175, No Iterations 5
time step continuity errors : sum local = 0.00336902, global = -0.000184431, cumulative = -0.00141515
DILUPBiCG:  Solving for nuTilda, Initial residual = 0.0191898, Final residual = 6.5461e-05, No Iterations 1
ExecutionTime = 1.63 s  ClockTime = 1 s

Time = 25

DILUPBiCG:  Solving for Ux, Initial residual = 0.00213297, Final residual = 3.62381e-05, No Iterations 1
DILUPBiCG:  Solving for Uy, Initial residual = 0.00356237, Final residual = 0.000170409, No Iterations 1
GAMG:  Solving for p, Initial residual = 0.20698, Final residual = 0.00140984, No Iterations 5
time step continuity errors : sum local = 0.00354274, global = -0.000142454, cumulative = -0.00155761
DILUPBiCG:  Solving for nuTilda, Initial residual = 0.0193002, Final residual = 6.70574e-05, No Iterations 1
ExecutionTime = 1.68 s  ClockTime = 1 s

Time = 26

DILUPBiCG:  Solving for Ux, Initial residual = 0.00203523, Final residual = 3.40879e-05, No Iterations 1
DILUPBiCG:  Solving for Uy, Initial residual = 0.00332831, Final residual = 9.06212e-05, No Iterations 1
GAMG:  Solving for p, Initial residual = 0.189812, Final residual = 0.00124788, No Iterations 5
time step continuity errors : sum local = 0.00310061, global = -2.52228e-05, cumulative = -0.00158283
DILUPBiCG:  Solving for nuTilda, Initial residual = 0.0194202, Final residual = 6.87751e-05, No Iterations 1
ExecutionTime = 1.73 s  ClockTime = 1 s

Time = 27

DILUPBiCG:  Solving for Ux, Initial residual = 0.00193616, Final residual = 3.25433e-05, No Iterations 1
DILUPBiCG:  Solving for Uy, Initial residual = 0.00309672, Final residual = 7.28895e-05, No Iterations 1
GAMG:  Solving for p, Initial residual = 0.178087, Final residual = 0.00152157, No Iterations 4
time step continuity errors : sum local = 0.00372159, global = -8.81729e-05, cumulative = -0.001671
DILUPBiCG:  Solving for nuTilda, Initial residual = 0.0194966, Final residual = 7.03871e-05, No Iterations 1
ExecutionTime = 1.78 s  ClockTime = 1 s

Time = 28

DILUPBiCG:  Solving for Ux, Initial residual = 0.00185215, Final residual = 2.97202e-05, No Iterations 1
DILUPBiCG:  Solving for Uy, Initial residual = 0.00295785, Final residual = 7.68295e-05, No Iterations 1
GAMG:  Solving for p, Initial residual = 0.174623, Final residual = 0.00147698, No Iterations 4
time step continuity errors : sum local = 0.00357367, global = -6.69295e-06, cumulative = -0.00167769
DILUPBiCG:  Solving for nuTilda, Initial residual = 0.0196011, Final residual = 7.22629e-05, No Iterations 1
ExecutionTime = 1.83 s  ClockTime = 1 s

Time = 29

DILUPBiCG:  Solving for Ux, Initial residual = 0.0017974, Final residual = 2.67812e-05, No Iterations 1
DILUPBiCG:  Solving for Uy, Initial residual = 0.00293247, Final residual = 0.000108548, No Iterations 1
GAMG:  Solving for p, Initial residual = 0.169454, Final residual = 0.00152272, No Iterations 4
time step continuity errors : sum local = 0.00366595, global = 6.35925e-05, cumulative = -0.0016141
DILUPBiCG:  Solving for nuTilda, Initial residual = 0.0196613, Final residual = 7.41742e-05, No Iterations 1
ExecutionTime = 1.88 s  ClockTime = 2 s

Time = 30

DILUPBiCG:  Solving for Ux, Initial residual = 0.00178345, Final residual = 2.47727e-05, No Iterations 1
DILUPBiCG:  Solving for Uy, Initial residual = 0.00306531, Final residual = 0.000302965, No Iterations 1
GAMG:  Solving for p, Initial residual = 0.171679, Final residual = 0.00147527, No Iterations 4
time step continuity errors : sum local = 0.00355788, global = 7.33019e-05, cumulative = -0.0015408
DILUPBiCG:  Solving for nuTilda, Initial residual = 0.019665, Final residual = 7.5897e-05, No Iterations 1
ExecutionTime = 1.93 s  ClockTime = 2 s

Time = 31

DILUPBiCG:  Solving for Ux, Initial residual = 0.00179889, Final residual = 2.31332e-05, No Iterations 1
DILUPBiCG:  Solving for Uy, Initial residual = 0.00325495, Final residual = 1.30721e-06, No Iterations 2
GAMG:  Solving for p, Initial residual = 0.182753, Final residual = 0.00148983, No Iterations 4
time step continuity errors : sum local = 0.00367018, global = -3.51667e-06, cumulative = -0.00154432
DILUPBiCG:  Solving for nuTilda, Initial residual = 0.0190338, Final residual = 7.51439e-05, No Iterations 1
ExecutionTime = 1.98 s  ClockTime = 2 s

Time = 32

DILUPBiCG:  Solving for Ux, Initial residual = 0.0018269, Final residual = 2.22991e-05, No Iterations 1
DILUPBiCG:  Solving for Uy, Initial residual = 0.00347387, Final residual = 1.66008e-06, No Iterations 2
GAMG:  Solving for p, Initial residual = 0.195762, Final residual = 0.00147636, No Iterations 4
time step continuity errors : sum local = 0.0037489, global = -4.94966e-05, cumulative = -0.00159381
DILUPBiCG:  Solving for nuTilda, Initial residual = 0.0181409, Final residual = 7.3316e-05, No Iterations 1
ExecutionTime = 2.03 s  ClockTime = 2 s

Time = 33

DILUPBiCG:  Solving for Ux, Initial residual = 0.00186672, Final residual = 2.188e-05, No Iterations 1
DILUPBiCG:  Solving for Uy, Initial residual = 0.00367197, Final residual = 0.000108871, No Iterations 1
GAMG:  Solving for p, Initial residual = 0.211159, Final residual = 0.00150417, No Iterations 4
time step continuity errors : sum local = 0.00400483, global = -8.61855e-05, cumulative = -0.00168
DILUPBiCG:  Solving for nuTilda, Initial residual = 0.0173537, Final residual = 7.19535e-05, No Iterations 1
ExecutionTime = 2.08 s  ClockTime = 2 s

Time = 34

DILUPBiCG:  Solving for Ux, Initial residual = 0.00190746, Final residual = 2.15238e-05, No Iterations 1
DILUPBiCG:  Solving for Uy, Initial residual = 0.00385621, Final residual = 0.000109769, No Iterations 1
GAMG:  Solving for p, Initial residual = 0.253972, Final residual = 0.0021425, No Iterations 3
time step continuity errors : sum local = 0.0058626, global = -0.000126182, cumulative = -0.00180618
DILUPBiCG:  Solving for nuTilda, Initial residual = 0.0166174, Final residual = 7.04461e-05, No Iterations 1
ExecutionTime = 2.13 s  ClockTime = 2 s

Time = 35

DILUPBiCG:  Solving for Ux, Initial residual = 0.00193456, Final residual = 2.09899e-05, No Iterations 1
[...]
ExecutionTime = 3.82 s  ClockTime = 4 s

Time = 66

DILUPBiCG:  Solving for Ux, Initial residual = 0.00185569, Final residual = 3.04906e-05, No Iterations 1
DILUPBiCG:  Solving for Uy, Initial residual = 0.00498231, Final residual = 0.000202232, No Iterations 1
GAMG:  Solving for p, Initial residual = 0.223337, Final residual = 0.00128079, No Iterations 4
time step continuity errors : sum local = 0.00401967, global = 0.000109984, cumulative = -0.0033151
DILUPBiCG:  Solving for nuTilda, Initial residual = 0.00735267, Final residual = 4.4827e-05, No Iterations 1
ExecutionTime = 3.87 s  ClockTime = 4 s

Time = 67

DILUPBiCG:  Solving for Ux, Initial residual = 0.00180098, Final residual = 3.194e-05, No Iterations 1
DILUPBiCG:  Solving for Uy, Initial residual = 0.0048392, Final residual = 0.000167245, No Iterations 1
GAMG:  Solving for p, Initial residual = 0.241261, Final residual = 0.00218112, No Iterations 3
time step continuity errors : sum local = 0.00711321, global = 6.68147e-05, cumulative = -0.00324828
DILUPBiCG:  Solving for nuTilda, Initial residual = 0.00723931, Final residual = 4.38001e-05, No Iterations 1
ExecutionTime = 3.92 s  ClockTime = 4 s

Time = 68

DILUPBiCG:  Solving for Ux, Initial residual = 0.00176354, Final residual = 1.80896e-05, No Iterations 1
DILUPBiCG:  Solving for Uy, Initial residual = 0.00476556, Final residual = 0.000133829, No Iterations 1
GAMG:  Solving for p, Initial residual = 0.263981, Final residual = 0.00178574, No Iterations 3
time step continuity errors : sum local = 0.005877, global = 5.8985e-05, cumulative = -0.0031893
DILUPBiCG:  Solving for nuTilda, Initial residual = 0.00713408, Final residual = 4.31055e-05, No Iterations 1
ExecutionTime = 3.97 s  ClockTime = 4 s

Time = 69

DILUPBiCG:  Solving for Ux, Initial residual = 0.00173809, Final residual = 1.97707e-05, No Iterations 1
DILUPBiCG:  Solving for Uy, Initial residual = 0.00473676, Final residual = 0.000127783, No Iterations 1
GAMG:  Solving for p, Initial residual = 0.263276, Final residual = 0.00238538, No Iterations 3
time step continuity errors : sum local = 0.00772254, global = 5.95588e-05, cumulative = -0.00312974
DILUPBiCG:  Solving for nuTilda, Initial residual = 0.00703194, Final residual = 4.28533e-05, No Iterations 1
ExecutionTime = 4.01 s  ClockTime = 4 s

Time = 70

DILUPBiCG:  Solving for Ux, Initial residual = 0.00173674, Final residual = 1.87746e-05, No Iterations 1
DILUPBiCG:  Solving for Uy, Initial residual = 0.00480719, Final residual = 0.000146619, No Iterations 1
GAMG:  Solving for p, Initial residual = 0.253347, Final residual = 0.00122136, No Iterations 4
time step continuity errors : sum local = 0.00390053, global = 7.5902e-05, cumulative = -0.00305384
DILUPBiCG:  Solving for nuTilda, Initial residual = 0.00692693, Final residual = 4.26681e-05, No Iterations 1
ExecutionTime = 4.07 s  ClockTime = 4 s

Time = 71

DILUPBiCG:  Solving for Ux, Initial residual = 0.00176203, Final residual = 1.85416e-05, No Iterations 1
DILUPBiCG:  Solving for Uy, Initial residual = 0.00497853, Final residual = 0.000187293, No Iterations 1
GAMG:  Solving for p, Initial residual = 0.246724, Final residual = 0.00137644, No Iterations 4
time step continuity errors : sum local = 0.00433825, global = 5.99115e-05, cumulative = -0.00299393
DILUPBiCG:  Solving for nuTilda, Initial residual = 0.00682726, Final residual = 4.24328e-05, No Iterations 1
ExecutionTime = 4.12 s  ClockTime = 4 s

Time = 72

DILUPBiCG:  Solving for Ux, Initial residual = 0.00179538, Final residual = 1.92103e-05, No Iterations 1
DILUPBiCG:  Solving for Uy, Initial residual = 0.00510969, Final residual = 0.000262519, No Iterations 1
GAMG:  Solving for p, Initial residual = 0.239047, Final residual = 0.00133515, No Iterations 4
time step continuity errors : sum local = 0.00414051, global = 2.82446e-05, cumulative = -0.00296568
DILUPBiCG:  Solving for nuTilda, Initial residual = 0.00672918, Final residual = 4.2183e-05, No Iterations 1
ExecutionTime = 4.16 s  ClockTime = 4 s

Time = 73

DILUPBiCG:  Solving for Ux, Initial residual = 0.00181668, Final residual = 2.18775e-05, No Iterations 1
DILUPBiCG:  Solving for Uy, Initial residual = 0.00518844, Final residual = 0.000454197, No Iterations 1
GAMG:  Solving for p, Initial residual = 0.225516, Final residual = 0.0016863, No Iterations 3
time step continuity errors : sum local = 0.00510121, global = -2.99599e-06, cumulative = -0.00296868
DILUPBiCG:  Solving for nuTilda, Initial residual = 0.00663718, Final residual = 4.19707e-05, No Iterations 1
ExecutionTime = 4.21 s  ClockTime = 4 s

Time = 74

DILUPBiCG:  Solving for Ux, Initial residual = 0.00180354, Final residual = 2.64302e-05, No Iterations 1
DILUPBiCG:  Solving for Uy, Initial residual = 0.00517249, Final residual = 2.52082e-06, No Iterations 2
GAMG:  Solving for p, Initial residual = 0.206939, Final residual = 0.00178636, No Iterations 3
time step continuity errors : sum local = 0.00531212, global = -9.07967e-05, cumulative = -0.00305948
DILUPBiCG:  Solving for nuTilda, Initial residual = 0.00654859, Final residual = 4.16581e-05, No Iterations 1
ExecutionTime = 4.26 s  ClockTime = 4 s

Time = 75

DILUPBiCG:  Solving for Ux, Initial residual = 0.00175713, Final residual = 2.7801e-05, No Iterations 1
DILUPBiCG:  Solving for Uy, Initial residual = 0.00504997, Final residual = 2.37155e-06, No Iterations 2
GAMG:  Solving for p, Initial residual = 0.191023, Final residual = 0.00112777, No Iterations 5
time step continuity errors : sum local = 0.00335106, global = -3.20116e-05, cumulative = -0.00309149
DILUPBiCG:  Solving for nuTilda, Initial residual = 0.00646294, Final residual = 4.12443e-05, No Iterations 1
ExecutionTime = 4.32 s  ClockTime = 4 s

Time = 76

DILUPBiCG:  Solving for Ux, Initial residual = 0.00168766, Final residual = 2.62792e-05, No Iterations 1
DILUPBiCG:  Solving for Uy, Initial residual = 0.00483099, Final residual = 2.26462e-06, No Iterations 2
GAMG:  Solving for p, Initial residual = 0.191867, Final residual = 0.00117215, No Iterations 5
time step continuity errors : sum local = 0.00351746, global = 3.55597e-05, cumulative = -0.00305593
DILUPBiCG:  Solving for nuTilda, Initial residual = 0.00638236, Final residual = 4.07631e-05, No Iterations 1
ExecutionTime = 4.38 s  ClockTime = 4 s

Time = 77

DILUPBiCG:  Solving for Ux, Initial residual = 0.00161502, Final residual = 2.43499e-05, No Iterations 1
DILUPBiCG:  Solving for Uy, Initial residual = 0.00461892, Final residual = 0.000362598, No Iterations 1
GAMG:  Solving for p, Initial residual = 0.20944, Final residual = 0.00176843, No Iterations 4
time step continuity errors : sum local = 0.00536647, global = 2.79948e-05, cumulative = -0.00302793
DILUPBiCG:  Solving for nuTilda, Initial residual = 0.00630276, Final residual = 4.01147e-05, No Iterations 1
ExecutionTime = 4.43 s  ClockTime = 4 s

Time = 78

DILUPBiCG:  Solving for Ux, Initial residual = 0.00156466, Final residual = 2.25926e-05, No Iterations 1
DILUPBiCG:  Solving for Uy, Initial residual = 0.00449853, Final residual = 0.000234176, No Iterations 1
GAMG:  Solving for p, Initial residual = 0.240815, Final residual = 0.00193624, No Iterations 3
time step continuity errors : sum local = 0.00600943, global = 7.10229e-05, cumulative = -0.00295691
DILUPBiCG:  Solving for nuTilda, Initial residual = 0.0062298, Final residual = 3.91985e-05, No Iterations 1
ExecutionTime = 4.48 s  ClockTime = 4 s

Time = 79

DILUPBiCG:  Solving for Ux, Initial residual = 0.00154482, Final residual = 1.63718e-05, No Iterations 1
DILUPBiCG:  Solving for Uy, Initial residual = 0.00448668, Final residual = 0.000145418, No Iterations 1
GAMG:  Solving for p, Initial residual = 0.276309, Final residual = 0.00229123, No Iterations 3
time step continuity errors : sum local = 0.00727669, global = 7.27476e-05, cumulative = -0.00288416
DILUPBiCG:  Solving for nuTilda, Initial residual = 0.00615958, Final residual = 3.8394e-05, No Iterations 1
ExecutionTime = 4.52 s  ClockTime = 4 s

Time = 80

DILUPBiCG:  Solving for Ux, Initial residual = 0.00154768, Final residual = 2.04949e-05, No Iterations 1
DILUPBiCG:  Solving for Uy, Initial residual = 0.00457151, Final residual = 0.000126966, No Iterations 1
GAMG:  Solving for p, Initial residual = 0.268525, Final residual = 0.00162739, No Iterations 4
time step continuity errors : sum local = 0.00511174, global = 0.000175654, cumulative = -0.00270851
DILUPBiCG:  Solving for nuTilda, Initial residual = 0.0060929, Final residual = 3.80674e-05, No Iterations 1
ExecutionTime = 4.57 s  ClockTime = 4 s

Time = 81

DILUPBiCG:  Solving for Ux, Initial residual = 0.00158345, Final residual = 2.06188e-05, No Iterations 1
DILUPBiCG:  Solving for Uy, Initial residual = 0.00480686, Final residual = 0.000146882, No Iterations 1
GAMG:  Solving for p, Initial residual = 0.241105, Final residual = 0.0019928, No Iterations 4
time step continuity errors : sum local = 0.00623577, global = 0.000168134, cumulative = -0.00254037
DILUPBiCG:  Solving for nuTilda, Initial residual = 0.00602418, Final residual = 3.79513e-05, No Iterations 1
ExecutionTime = 4.62 s  ClockTime = 5 s

Time = 82

DILUPBiCG:  Solving for Ux, Initial residual = 0.00164001, Final residual = 1.88113e-05, No Iterations 1
DILUPBiCG:  Solving for Uy, Initial residual = 0.00509869, Final residual = 0.000201232, No Iterations 1
GAMG:  Solving for p, Initial residual = 0.227974, Final residual = 0.0017894, No Iterations 4
time step continuity errors : sum local = 0.00561893, global = 8.08637e-05, cumulative = -0.00245951
DILUPBiCG:  Solving for nuTilda, Initial residual = 0.0059548, Final residual = 3.79482e-05, No Iterations 1
ExecutionTime = 4.68 s  ClockTime = 5 s

Time = 83

DILUPBiCG:  Solving for Ux, Initial residual = 0.00167979, Final residual = 1.83157e-05, No Iterations 1
DILUPBiCG:  Solving for Uy, Initial residual = 0.00526698, Final residual = 0.000350937, No Iterations 1
GAMG:  Solving for p, Initial residual = 0.214987, Final residual = 0.00176615, No Iterations 3
time step continuity errors : sum local = 0.00554935, global = 0.000147715, cumulative = -0.0023118
DILUPBiCG:  Solving for nuTilda, Initial residual = 0.00588884, Final residual = 3.79491e-05, No Iterations 1
ExecutionTime = 4.73 s  ClockTime = 5 s

Time = 84

DILUPBiCG:  Solving for Ux, Initial residual = 0.00166889, Final residual = 2.21532e-05, No Iterations 1
DILUPBiCG:  Solving for Uy, Initial residual = 0.00519474, Final residual = 2.6286e-06, No Iterations 2
GAMG:  Solving for p, Initial residual = 0.202046, Final residual = 0.00141999, No Iterations 4
time step continuity errors : sum local = 0.00443335, global = 5.12141e-05, cumulative = -0.00226058
DILUPBiCG:  Solving for nuTilda, Initial residual = 0.0058232, Final residual = 3.78694e-05, No Iterations 1
ExecutionTime = 4.78 s  ClockTime = 5 s

Time = 85

DILUPBiCG:  Solving for Ux, Initial residual = 0.00161542, Final residual = 2.70503e-05, No Iterations 1
DILUPBiCG:  Solving for Uy, Initial residual = 0.00498182, Final residual = 2.4235e-06, No Iterations 2
GAMG:  Solving for p, Initial residual = 0.196752, Final residual = 0.0011844, No Iterations 5
time step continuity errors : sum local = 0.00370584, global = 3.68941e-05, cumulative = -0.00222369
DILUPBiCG:  Solving for nuTilda, Initial residual = 0.00576217, Final residual = 3.77205e-05, No Iterations 1
ExecutionTime = 4.84 s  ClockTime = 5 s

Time = 86

DILUPBiCG:  Solving for Ux, Initial residual = 0.00153262, Final residual = 2.5538e-05, No Iterations 1
DILUPBiCG:  Solving for Uy, Initial residual = 0.0047062, Final residual = 2.21891e-06, No Iterations 2
GAMG:  Solving for p, Initial residual = 0.211099, Final residual = 0.00124811, No Iterations 5
time step continuity errors : sum local = 0.00396908, global = 6.63372e-05, cumulative = -0.00215735
DILUPBiCG:  Solving for nuTilda, Initial residual = 0.0057021, Final residual = 3.73899e-05, No Iterations 1
ExecutionTime = 4.89 s  ClockTime = 5 s

Time = 87

DILUPBiCG:  Solving for Ux, Initial residual = 0.00144881, Final residual = 1.91046e-05, No Iterations 1
DILUPBiCG:  Solving for Uy, Initial residual = 0.00446318, Final residual = 2.02917e-06, No Iterations 2
GAMG:  Solving for p, Initial residual = 0.270892, Final residual = 0.00190225, No Iterations 4
time step continuity errors : sum local = 0.00634844, global = 2.55617e-05, cumulative = -0.00213179
DILUPBiCG:  Solving for nuTilda, Initial residual = 0.00564825, Final residual = 3.66242e-05, No Iterations 1
ExecutionTime = 4.94 s  ClockTime = 5 s

Time = 88

DILUPBiCG:  Solving for Ux, Initial residual = 0.00140397, Final residual = 1.55478e-05, No Iterations 1
DILUPBiCG:  Solving for Uy, Initial residual = 0.00435809, Final residual = 0.00011319, No Iterations 1
GAMG:  Solving for p, Initial residual = 0.298692, Final residual = 0.00262198, No Iterations 3
time step continuity errors : sum local = 0.0086722, global = -0.000116222, cumulative = -0.00224801
DILUPBiCG:  Solving for nuTilda, Initial residual = 0.00559545, Final residual = 3.62418e-05, No Iterations 1
ExecutionTime = 4.99 s  ClockTime = 5 s

Time = 89

DILUPBiCG:  Solving for Ux, Initial residual = 0.00140968, Final residual = 1.64244e-05, No Iterations 1
DILUPBiCG:  Solving for Uy, Initial residual = 0.00446297, Final residual = 9.95694e-05, No Iterations 1
GAMG:  Solving for p, Initial residual = 0.268382, Final residual = 0.00192954, No Iterations 4
time step continuity errors : sum local = 0.00627716, global = 7.14351e-05, cumulative = -0.00217658
DILUPBiCG:  Solving for nuTilda, Initial residual = 0.00554368, Final residual = 3.60706e-05, No Iterations 1
ExecutionTime = 5.05 s  ClockTime = 5 s

Time = 90

DILUPBiCG:  Solving for Ux, Initial residual = 0.0014596, Final residual = 1.66337e-05, No Iterations 1
DILUPBiCG:  Solving for Uy, Initial residual = 0.00474315, Final residual = 0.000117716, No Iterations 1
GAMG:  Solving for p, Initial residual = 0.230832, Final residual = 0.00221345, No Iterations 4
time step continuity errors : sum local = 0.00709116, global = 0.000141123, cumulative = -0.00203545
DILUPBiCG:  Solving for nuTilda, Initial residual = 0.00548768, Final residual = 3.59342e-05, No Iterations 1
ExecutionTime = 5.1 s  ClockTime = 5 s

Time = 91

DILUPBiCG:  Solving for Ux, Initial residual = 0.00152919, Final residual = 1.67096e-05, No Iterations 1
DILUPBiCG:  Solving for Uy, Initial residual = 0.0050354, Final residual = 0.00015142, No Iterations 1
GAMG:  Solving for p, Initial residual = 0.213819, Final residual = 0.00155562, No Iterations 4
time step continuity errors : sum local = 0.00497121, global = 0.000121588, cumulative = -0.00191386
DILUPBiCG:  Solving for nuTilda, Initial residual = 0.00543319, Final residual = 3.58992e-05, No Iterations 1
ExecutionTime = 5.15 s  ClockTime = 5 s

Time = 92

DILUPBiCG:  Solving for Ux, Initial residual = 0.00156602, Final residual = 1.88504e-05, No Iterations 1
DILUPBiCG:  Solving for Uy, Initial residual = 0.00514193, Final residual = 0.000211445, No Iterations 1
GAMG:  Solving for p, Initial residual = 0.208298, Final residual = 0.00150618, No Iterations 3
time step continuity errors : sum local = 0.00486477, global = 0.000112492, cumulative = -0.00180137
DILUPBiCG:  Solving for nuTilda, Initial residual = 0.0053803, Final residual = 3.57868e-05, No Iterations 1
ExecutionTime = 5.2 s  ClockTime = 5 s

Time = 93

DILUPBiCG:  Solving for Ux, Initial residual = 0.0015501, Final residual = 2.48856e-05, No Iterations 1
DILUPBiCG:  Solving for Uy, Initial residual = 0.00500199, Final residual = 0.00031016, No Iterations 1
GAMG:  Solving for p, Initial residual = 0.212792, Final residual = 0.00160644, No Iterations 4
time step continuity errors : sum local = 0.00522389, global = 0.000127252, cumulative = -0.00167412
DILUPBiCG:  Solving for nuTilda, Initial residual = 0.00532981, Final residual = 3.5534e-05, No Iterations 1
ExecutionTime = 5.25 s  ClockTime = 5 s

Time = 94

DILUPBiCG:  Solving for Ux, Initial residual = 0.00149248, Final residual = 2.9714e-05, No Iterations 1
DILUPBiCG:  Solving for Uy, Initial residual = 0.00471565, Final residual = 2.25174e-06, No Iterations 2
GAMG:  Solving for p, Initial residual = 0.229763, Final residual = 0.00203729, No Iterations 4
time step continuity errors : sum local = 0.0068667, global = 9.27288e-05, cumulative = -0.00158139
DILUPBiCG:  Solving for nuTilda, Initial residual = 0.00528141, Final residual = 3.51255e-05, No Iterations 1
ExecutionTime = 5.3 s  ClockTime = 5 s

Time = 95

DILUPBiCG:  Solving for Ux, Initial residual = 0.00141938, Final residual = 2.25278e-05, No Iterations 1
DILUPBiCG:  Solving for Uy, Initial residual = 0.00446672, Final residual = 2.05818e-06, No Iterations 2
GAMG:  Solving for p, Initial residual = 0.294975, Final residual = 0.00185567, No Iterations 4
time step continuity errors : sum local = 0.00684949, global = 9.27876e-05, cumulative = -0.0014886
DILUPBiCG:  Solving for nuTilda, Initial residual = 0.00523659, Final residual = 3.45238e-05, No Iterations 1
ExecutionTime = 5.35 s  ClockTime = 5 s

Time = 96

DILUPBiCG:  Solving for Ux, Initial residual = 0.00135873, Final residual = 1.45746e-05, No Iterations 1
DILUPBiCG:  Solving for Uy, Initial residual = 0.00432116, Final residual = 9.59577e-05, No Iterations 1
GAMG:  Solving for p, Initial residual = 0.29665, Final residual = 0.00217875, No Iterations 3
time step continuity errors : sum local = 0.00789801, global = 7.5481e-05, cumulative = -0.00141312
DILUPBiCG:  Solving for nuTilda, Initial residual = 0.00519344, Final residual = 3.41933e-05, No Iterations 1
ExecutionTime = 5.4 s  ClockTime = 5 s

Time = 97

DILUPBiCG:  Solving for Ux, Initial residual = 0.00135608, Final residual = 1.46677e-05, No Iterations 1
DILUPBiCG:  Solving for Uy, Initial residual = 0.00447027, Final residual = 9.25813e-05, No Iterations 1
GAMG:  Solving for p, Initial residual = 0.254601, Final residual = 0.00151561, No Iterations 4
time step continuity errors : sum local = 0.00542563, global = 0.00012412, cumulative = -0.001289
DILUPBiCG:  Solving for nuTilda, Initial residual = 0.00515079, Final residual = 3.39055e-05, No Iterations 1
ExecutionTime = 5.45 s  ClockTime = 5 s

Time = 98

DILUPBiCG:  Solving for Ux, Initial residual = 0.00139602, Final residual = 1.53987e-05, No Iterations 1
DILUPBiCG:  Solving for Uy, Initial residual = 0.00476073, Final residual = 0.000110017, No Iterations 1
GAMG:  Solving for p, Initial residual = 0.218318, Final residual = 0.00181062, No Iterations 4
time step continuity errors : sum local = 0.00636382, global = 0.000158916, cumulative = -0.00113009
DILUPBiCG:  Solving for nuTilda, Initial residual = 0.00510551, Final residual = 3.36106e-05, No Iterations 1
ExecutionTime = 5.5 s  ClockTime = 5 s

Time = 99

DILUPBiCG:  Solving for Ux, Initial residual = 0.00144865, Final residual = 1.6806e-05, No Iterations 1
DILUPBiCG:  Solving for Uy, Initial residual = 0.00500032, Final residual = 0.000132589, No Iterations 1
GAMG:  Solving for p, Initial residual = 0.198754, Final residual = 0.00123856, No Iterations 4
time step continuity errors : sum local = 0.00435391, global = 0.000142552, cumulative = -0.000987534
DILUPBiCG:  Solving for nuTilda, Initial residual = 0.00506135, Final residual = 3.33849e-05, No Iterations 1
ExecutionTime = 5.55 s  ClockTime = 5 s

Time = 100

DILUPBiCG:  Solving for Ux, Initial residual = 0.00147009, Final residual = 1.97188e-05, No Iterations 1
DILUPBiCG:  Solving for Uy, Initial residual = 0.00502481, Final residual = 0.000167761, No Iterations 1
GAMG:  Solving for p, Initial residual = 0.199332, Final residual = 0.00146531, No Iterations 3
time step continuity errors : sum local = 0.00520836, global = 8.83926e-06, cumulative = -0.000978695
DILUPBiCG:  Solving for nuTilda, Initial residual = 0.0050167, Final residual = 3.30813e-05, No Iterations 1
ExecutionTime = 5.75 s  ClockTime = 6 s

End

